/*---------------------------------------------------------------------------*\
  =========                 |
  \\      /  F ield         | OpenFOAM: The Open Source CFD Toolbox
   \\    /   O peration     | Website:  https://openfoam.org
    \\  /    A nd           | Version:  6
     \\/     M anipulation  |
\*---------------------------------------------------------------------------*/
Build  : 6-6257b17a4cf8
Exec   : simpleFoam
Date   : Apr 25 2019
Time   : 23:30:18
Host   : "DellXps14"
PID    : 5273
I/O    : uncollated
Case   : /mnt/c/Users/Peter/Documents/saturnWheel/config1b
nProcs : 1
sigFpe : Enabling floating point exception trapping (FOAM_SIGFPE).
fileModificationChecking : Monitoring run-time modified files using timeStampMaster (fileModificationSkew 10)
allowSystemOperations : Allowing user-supplied system call operations

// * * * * * * * * * * * * * * * * * * * * * * * * * * * * * * * * * * * * * //
Create time

Create mesh for time = 0


SIMPLE: Convergence criteria found
        p: tolerance 0.01
        U: tolerance 0.001
        "(k|epsilon|omega)": tolerance 0.001

Reading field p

Reading field U

Reading/calculating face flux field phi

Selecting incompressible transport model Newtonian
Selecting turbulence model type RAS
Selecting RAS turbulence model kOmegaSST
Selecting patchDistMethod meshWave
RAS
{
    RASModel        kOmegaSST;
    turbulence      on;
    printCoeffs     on;
    alphaK1         0.85;
    alphaK2         1;
    alphaOmega1     0.5;
    alphaOmega2     0.856;
    gamma1          0.555555555556;
    gamma2          0.44;
    beta1           0.075;
    beta2           0.0828;
    betaStar        0.09;
    a1              0.31;
    b1              1;
    c1              10;
    F3              false;
}

No MRF models present

No finite volume options present

Starting time loop

Time = 1

smoothSolver:  Solving for Ux, Initial residual = 0.999999997658, Final residual = 0.0596171673947, No Iterations 43
smoothSolver:  Solving for Uy, Initial residual = 1, Final residual = 0.0769328783241, No Iterations 43
smoothSolver:  Solving for Uz, Initial residual = 1, Final residual = 0.0590433460179, No Iterations 43
GAMG:  Solving for p, Initial residual = 0.999999996177, Final residual = 0.0722312936212, No Iterations 4
time step continuity errors : sum local = 1.41854998432e-06, global = -1.39921663309e-07, cumulative = -1.39921663309e-07
smoothSolver:  Solving for omega, Initial residual = 0.999998947579, Final residual = 0.00171648164919, No Iterations 1
smoothSolver:  Solving for k, Initial residual = 0.99999999998, Final residual = 0.0152855179387, No Iterations 1
ExecutionTime = 8.69 s  ClockTime = 9 s

Time = 2

smoothSolver:  Solving for Ux, Initial residual = 0.161752649442, Final residual = 0.0150608952369, No Iterations 17
smoothSolver:  Solving for Uy, Initial residual = 0.467536028361, Final residual = 0.0429315411801, No Iterations 17
smoothSolver:  Solving for Uz, Initial residual = 0.436246367184, Final residual = 0.0415264829904, No Iterations 16
GAMG:  Solving for p, Initial residual = 0.110575165969, Final residual = 0.00823082764901, No Iterations 2
time step continuity errors : sum local = 4.181826253e-06, global = 7.34648216352e-07, cumulative = 5.94726553043e-07
smoothSolver:  Solving for omega, Initial residual = 0.99998462658, Final residual = 0.0165990176354, No Iterations 1
smoothSolver:  Solving for k, Initial residual = 0.893491380639, Final residual = 0.0119260915062, No Iterations 2
ExecutionTime = 13.21 s  ClockTime = 13 s

Time = 3

smoothSolver:  Solving for Ux, Initial residual = 0.117221608438, Final residual = 0.0114340709704, No Iterations 17
smoothSolver:  Solving for Uy, Initial residual = 0.368000526607, Final residual = 0.035342702499, No Iterations 17
smoothSolver:  Solving for Uz, Initial residual = 0.34101200058, Final residual = 0.0337558858902, No Iterations 16
GAMG:  Solving for p, Initial residual = 0.200898957831, Final residual = 0.014387532931, No Iterations 3
time step continuity errors : sum local = 6.19494122101e-06, global = 2.29270146693e-08, cumulative = 6.17653567712e-07
smoothSolver:  Solving for omega, Initial residual = 0.908082159549, Final residual = 0.0134211553364, No Iterations 2
smoothSolver:  Solving for k, Initial residual = 0.567454007537, Final residual = 0.0532760362784, No Iterations 2
ExecutionTime = 17.61 s  ClockTime = 18 s

Time = 4

smoothSolver:  Solving for Ux, Initial residual = 0.542718809427, Final residual = 0.0415275334399, No Iterations 6
smoothSolver:  Solving for Uy, Initial residual = 0.656987758523, Final residual = 0.0649641679641, No Iterations 2
smoothSolver:  Solving for Uz, Initial residual = 0.656919510753, Final residual = 0.0571955040687, No Iterations 3
GAMG:  Solving for p, Initial residual = 0.350049509391, Final residual = 0.0302920834013, No Iterations 3
time step continuity errors : sum local = 1.7332622928e-05, global = -2.01427108141e-06, cumulative = -1.3966175137e-06
smoothSolver:  Solving for omega, Initial residual = 0.333432660042, Final residual = 0.0219801625422, No Iterations 1
smoothSolver:  Solving for k, Initial residual = 0.308670081513, Final residual = 0.0234133433046, No Iterations 3
ExecutionTime = 21.02 s  ClockTime = 21 s

Time = 5

smoothSolver:  Solving for Ux, Initial residual = 0.492478252927, Final residual = 0.0420852477639, No Iterations 8
smoothSolver:  Solving for Uy, Initial residual = 0.582258039473, Final residual = 0.0511046822869, No Iterations 6
smoothSolver:  Solving for Uz, Initial residual = 0.580920325608, Final residual = 0.0475260561216, No Iterations 6
GAMG:  Solving for p, Initial residual = 0.412053192581, Final residual = 0.0223867472647, No Iterations 3
time step continuity errors : sum local = 2.70698811146e-05, global = -4.9951829181e-06, cumulative = -6.3918004318e-06
smoothSolver:  Solving for omega, Initial residual = 0.264194457696, Final residual = 0.00993027449457, No Iterations 2
smoothSolver:  Solving for k, Initial residual = 0.206623486739, Final residual = 0.0116274150692, No Iterations 2
ExecutionTime = 24.51 s  ClockTime = 25 s

Time = 6

smoothSolver:  Solving for Ux, Initial residual = 0.427004261911, Final residual = 0.039647794714, No Iterations 9
smoothSolver:  Solving for Uy, Initial residual = 0.483196329138, Final residual = 0.0456309154976, No Iterations 8
smoothSolver:  Solving for Uz, Initial residual = 0.499453657999, Final residual = 0.0482181977251, No Iterations 8
GAMG:  Solving for p, Initial residual = 0.317197206649, Final residual = 0.0109641758249, No Iterations 3
time step continuity errors : sum local = 2.29358760058e-05, global = -1.18700370022e-06, cumulative = -7.57880413202e-06
smoothSolver:  Solving for omega, Initial residual = 0.18705926099, Final residual = 0.0100238484317, No Iterations 1
smoothSolver:  Solving for k, Initial residual = 0.154554662612, Final residual = 0.010478450662, No Iterations 2
ExecutionTime = 27.95 s  ClockTime = 28 s

Time = 7

smoothSolver:  Solving for Ux, Initial residual = 0.369464299207, Final residual = 0.035785581511, No Iterations 11
smoothSolver:  Solving for Uy, Initial residual = 0.369333257924, Final residual = 0.0362534645051, No Iterations 12
smoothSolver:  Solving for Uz, Initial residual = 0.384215011514, Final residual = 0.035422073467, No Iterations 13
GAMG:  Solving for p, Initial residual = 0.168871726219, Final residual = 0.0157635879395, No Iterations 2
time step continuity errors : sum local = 7.90431366726e-05, global = 1.29052710008e-06, cumulative = -6.28827703194e-06
smoothSolver:  Solving for omega, Initial residual = 0.150177989191, Final residual = 0.0117317531682, No Iterations 1
smoothSolver:  Solving for k, Initial residual = 0.119155259254, Final residual = 0.0118410543142, No Iterations 1
ExecutionTime = 31.45 s  ClockTime = 32 s

Time = 8

smoothSolver:  Solving for Ux, Initial residual = 0.316068917019, Final residual = 0.0276108476578, No Iterations 13
smoothSolver:  Solving for Uy, Initial residual = 0.317566461704, Final residual = 0.0308170808522, No Iterations 13
smoothSolver:  Solving for Uz, Initial residual = 0.334055213237, Final residual = 0.0333659736317, No Iterations 13
GAMG:  Solving for p, Initial residual = 0.181769332971, Final residual = 0.0130292492834, No Iterations 2
time step continuity errors : sum local = 6.83929562806e-05, global = 9.04069020313e-06, cumulative = 2.75241317119e-06
smoothSolver:  Solving for omega, Initial residual = 0.114646512025, Final residual = 0.00788731835832, No Iterations 1
smoothSolver:  Solving for k, Initial residual = 0.104109638155, Final residual = 0.00667301789286, No Iterations 2
ExecutionTime = 35.06 s  ClockTime = 35 s

Time = 9

smoothSolver:  Solving for Ux, Initial residual = 0.290533325364, Final residual = 0.0264921233861, No Iterations 12
smoothSolver:  Solving for Uy, Initial residual = 0.309702705139, Final residual = 0.0308775755918, No Iterations 11
smoothSolver:  Solving for Uz, Initial residual = 0.314918612882, Final residual = 0.0294531149602, No Iterations 12
GAMG:  Solving for p, Initial residual = 0.192232736827, Final residual = 0.012092716162, No Iterations 2
time step continuity errors : sum local = 5.2775572766e-05, global = 8.77373484387e-06, cumulative = 1.15261480151e-05
smoothSolver:  Solving for omega, Initial residual = 0.0967430606358, Final residual = 0.00851259248415, No Iterations 1
smoothSolver:  Solving for k, Initial residual = 0.0736732150552, Final residual = 0.004563020848, No Iterations 2
ExecutionTime = 38.52 s  ClockTime = 39 s

Time = 10

smoothSolver:  Solving for Ux, Initial residual = 0.249094955557, Final residual = 0.0237602203369, No Iterations 11
smoothSolver:  Solving for Uy, Initial residual = 0.269852750763, Final residual = 0.0255266959281, No Iterations 12
smoothSolver:  Solving for Uz, Initial residual = 0.280894476307, Final residual = 0.0262829265198, No Iterations 12
GAMG:  Solving for p, Initial residual = 0.144288957582, Final residual = 0.00819196001259, No Iterations 2
time step continuity errors : sum local = 4.07388362923e-05, global = 6.08815989359e-06, cumulative = 1.76143079087e-05
smoothSolver:  Solving for omega, Initial residual = 0.0725240400402, Final residual = 0.00649070996778, No Iterations 1
smoothSolver:  Solving for k, Initial residual = 0.0612738274015, Final residual = 0.00473677676912, No Iterations 2
ExecutionTime = 42.04 s  ClockTime = 42 s

Time = 11

smoothSolver:  Solving for Ux, Initial residual = 0.197393848457, Final residual = 0.0176815486745, No Iterations 12
smoothSolver:  Solving for Uy, Initial residual = 0.240939945764, Final residual = 0.0224419156958, No Iterations 12
smoothSolver:  Solving for Uz, Initial residual = 0.240901761406, Final residual = 0.0230248744874, No Iterations 12
GAMG:  Solving for p, Initial residual = 0.113279289684, Final residual = 0.00669676053866, No Iterations 2
time step continuity errors : sum local = 3.46377776977e-05, global = 3.68401606994e-06, cumulative = 2.12983239786e-05
smoothSolver:  Solving for omega, Initial residual = 0.0613018851817, Final residual = 0.00289072631474, No Iterations 2
smoothSolver:  Solving for k, Initial residual = 0.0480438592801, Final residual = 0.00473793756183, No Iterations 2
ExecutionTime = 45.58 s  ClockTime = 46 s

Time = 12

smoothSolver:  Solving for Ux, Initial residual = 0.160847401482, Final residual = 0.0158220614797, No Iterations 12
smoothSolver:  Solving for Uy, Initial residual = 0.213114236749, Final residual = 0.0194394857319, No Iterations 12
smoothSolver:  Solving for Uz, Initial residual = 0.212092417576, Final residual = 0.0202519363827, No Iterations 12
GAMG:  Solving for p, Initial residual = 0.0931702028171, Final residual = 0.0056716855001, No Iterations 2
time step continuity errors : sum local = 2.94491848201e-05, global = 1.39575974133e-06, cumulative = 2.26940837199e-05
smoothSolver:  Solving for omega, Initial residual = 0.0407484357385, Final residual = 0.0036473983342, No Iterations 1
smoothSolver:  Solving for k, Initial residual = 0.0416211976277, Final residual = 0.00411845686881, No Iterations 3
ExecutionTime = 49.29 s  ClockTime = 49 s

Time = 13

smoothSolver:  Solving for Ux, Initial residual = 0.144378233179, Final residual = 0.0141361954015, No Iterations 13
smoothSolver:  Solving for Uy, Initial residual = 0.195006603783, Final residual = 0.0191235901644, No Iterations 12
smoothSolver:  Solving for Uz, Initial residual = 0.193640139711, Final residual = 0.017355218884, No Iterations 13
GAMG:  Solving for p, Initial residual = 0.0813713273649, Final residual = 0.00482529987291, No Iterations 2
time step continuity errors : sum local = 2.54550014095e-05, global = -7.38042619625e-07, cumulative = 2.19560411003e-05
smoothSolver:  Solving for omega, Initial residual = 0.0332057171754, Final residual = 0.00157914149746, No Iterations 2
smoothSolver:  Solving for k, Initial residual = 0.0372682121621, Final residual = 0.00343451950171, No Iterations 4
ExecutionTime = 53.2 s  ClockTime = 53 s

Time = 14

smoothSolver:  Solving for Ux, Initial residual = 0.142754601629, Final residual = 0.0126280166488, No Iterations 15
smoothSolver:  Solving for Uy, Initial residual = 0.189267879704, Final residual = 0.018708241358, No Iterations 13
smoothSolver:  Solving for Uz, Initial residual = 0.190874892187, Final residual = 0.0187815109875, No Iterations 13
GAMG:  Solving for p, Initial residual = 0.0767608452677, Final residual = 0.00481835663035, No Iterations 2
time step continuity errors : sum local = 2.56834261437e-05, global = -2.5205527509e-06, cumulative = 1.94354883494e-05
smoothSolver:  Solving for omega, Initial residual = 0.0233304787902, Final residual = 0.00214266643945, No Iterations 1
smoothSolver:  Solving for k, Initial residual = 0.0384296532424, Final residual = 0.00328067631422, No Iterations 5
ExecutionTime = 56.84 s  ClockTime = 57 s

Time = 15

smoothSolver:  Solving for Ux, Initial residual = 0.153396515004, Final residual = 0.0137248816464, No Iterations 16
smoothSolver:  Solving for Uy, Initial residual = 0.202344303794, Final residual = 0.0178876682962, No Iterations 15
smoothSolver:  Solving for Uz, Initial residual = 0.201221594309, Final residual = 0.0193828733421, No Iterations 14
GAMG:  Solving for p, Initial residual = 0.0778694684134, Final residual = 0.00483295781165, No Iterations 2
time step continuity errors : sum local = 2.52665461459e-05, global = -3.57358626814e-06, cumulative = 1.58619020813e-05
smoothSolver:  Solving for omega, Initial residual = 0.0187634412995, Final residual = 0.00095439437335, No Iterations 2
smoothSolver:  Solving for k, Initial residual = 0.0393213744786, Final residual = 0.00300294019092, No Iterations 6
ExecutionTime = 60.58 s  ClockTime = 61 s

Time = 16

smoothSolver:  Solving for Ux, Initial residual = 0.166812979146, Final residual = 0.0159155209232, No Iterations 16
smoothSolver:  Solving for Uy, Initial residual = 0.225431348157, Final residual = 0.0222803904767, No Iterations 15
smoothSolver:  Solving for Uz, Initial residual = 0.219804444811, Final residual = 0.0205028948567, No Iterations 15
GAMG:  Solving for p, Initial residual = 0.0796786928386, Final residual = 0.00458286290412, No Iterations 2
time step continuity errors : sum local = 2.26075028084e-05, global = -3.52437683087e-06, cumulative = 1.23375252504e-05
smoothSolver:  Solving for omega, Initial residual = 0.0134962512946, Final residual = 0.00131461545704, No Iterations 1
smoothSolver:  Solving for k, Initial residual = 0.0239093797026, Final residual = 0.00222974418792, No Iterations 6
ExecutionTime = 64.4 s  ClockTime = 65 s

Time = 17

smoothSolver:  Solving for Ux, Initial residual = 0.182123275994, Final residual = 0.0173682815519, No Iterations 16
smoothSolver:  Solving for Uy, Initial residual = 0.247799898483, Final residual = 0.0226474779995, No Iterations 16
smoothSolver:  Solving for Uz, Initial residual = 0.240512247907, Final residual = 0.0235197377114, No Iterations 15
GAMG:  Solving for p, Initial residual = 0.0812217515283, Final residual = 0.00467580190516, No Iterations 2
time step continuity errors : sum local = 2.04853986379e-05, global = -2.74531275904e-06, cumulative = 9.59221249136e-06
smoothSolver:  Solving for omega, Initial residual = 0.0107373216157, Final residual = 0.000595860724554, No Iterations 2
smoothSolver:  Solving for k, Initial residual = 0.0213990736209, Final residual = 0.00160480898625, No Iterations 7
ExecutionTime = 68.18 s  ClockTime = 68 s

Time = 18

smoothSolver:  Solving for Ux, Initial residual = 0.191205783271, Final residual = 0.0181521244737, No Iterations 16
smoothSolver:  Solving for Uy, Initial residual = 0.260672388719, Final residual = 0.0243242631952, No Iterations 16
smoothSolver:  Solving for Uz, Initial residual = 0.25340302861, Final residual = 0.0224066626396, No Iterations 16
GAMG:  Solving for p, Initial residual = 0.0872411757202, Final residual = 0.00496248612325, No Iterations 2
time step continuity errors : sum local = 1.94022099081e-05, global = -1.93009693424e-06, cumulative = 7.66211555712e-06
smoothSolver:  Solving for omega, Initial residual = 0.00782207240441, Final residual = 0.000432551559725, No Iterations 2
smoothSolver:  Solving for k, Initial residual = 0.0188874686766, Final residual = 0.00164798070928, No Iterations 7
ExecutionTime = 72.01 s  ClockTime = 72 s

Time = 19

smoothSolver:  Solving for Ux, Initial residual = 0.194365464321, Final residual = 0.0184577935909, No Iterations 16
smoothSolver:  Solving for Uy, Initial residual = 0.262823404424, Final residual = 0.0250120911018, No Iterations 16
smoothSolver:  Solving for Uz, Initial residual = 0.255804173621, Final residual = 0.0230544714283, No Iterations 16
GAMG:  Solving for p, Initial residual = 0.090830255727, Final residual = 0.00494788530871, No Iterations 2
time step continuity errors : sum local = 1.72570911762e-05, global = -1.36694174328e-06, cumulative = 6.29517381384e-06
smoothSolver:  Solving for omega, Initial residual = 0.0057697919557, Final residual = 0.000326961048851, No Iterations 2
smoothSolver:  Solving for k, Initial residual = 0.0158068683725, Final residual = 0.00146336475155, No Iterations 7
ExecutionTime = 75.89 s  ClockTime = 76 s

Time = 20

smoothSolver:  Solving for Ux, Initial residual = 0.1930551646, Final residual = 0.0186786611407, No Iterations 16
smoothSolver:  Solving for Uy, Initial residual = 0.261416311006, Final residual = 0.0253734645528, No Iterations 16
smoothSolver:  Solving for Uz, Initial residual = 0.251973523413, Final residual = 0.0231580394033, No Iterations 16
GAMG:  Solving for p, Initial residual = 0.0924904063533, Final residual = 0.00478222557016, No Iterations 2
time step continuity errors : sum local = 1.51734536408e-05, global = -9.95002393459e-07, cumulative = 5.30017142038e-06
smoothSolver:  Solving for omega, Initial residual = 0.00437803500974, Final residual = 0.0002472749346, No Iterations 2
smoothSolver:  Solving for k, Initial residual = 0.0149041338005, Final residual = 0.00120438195032, No Iterations 8
ExecutionTime = 79.74 s  ClockTime = 80 s

Time = 21

smoothSolver:  Solving for Ux, Initial residual = 0.194441793666, Final residual = 0.0190128371067, No Iterations 16
smoothSolver:  Solving for Uy, Initial residual = 0.261587987772, Final residual = 0.0254949573414, No Iterations 16
smoothSolver:  Solving for Uz, Initial residual = 0.247342698257, Final residual = 0.0233057546825, No Iterations 16
GAMG:  Solving for p, Initial residual = 0.0938912387977, Final residual = 0.00493234274442, No Iterations 2
time step continuity errors : sum local = 1.41931187202e-05, global = -8.30360522231e-07, cumulative = 4.46981089815e-06
smoothSolver:  Solving for omega, Initial residual = 0.00342044271115, Final residual = 0.000199010876859, No Iterations 2
smoothSolver:  Solving for k, Initial residual = 0.0137803917949, Final residual = 0.00126517668153, No Iterations 8
ExecutionTime = 83.66 s  ClockTime = 84 s

Time = 22

smoothSolver:  Solving for Ux, Initial residual = 0.192639478515, Final residual = 0.0192043911885, No Iterations 16
smoothSolver:  Solving for Uy, Initial residual = 0.263502392407, Final residual = 0.0263188438816, No Iterations 16
smoothSolver:  Solving for Uz, Initial residual = 0.242300125896, Final residual = 0.0240721359966, No Iterations 16
GAMG:  Solving for p, Initial residual = 0.0936214957958, Final residual = 0.00484433931253, No Iterations 2
time step continuity errors : sum local = 1.29568482901e-05, global = -9.30572941982e-07, cumulative = 3.53923795617e-06
smoothSolver:  Solving for omega, Initial residual = 0.0026606502111, Final residual = 0.000159271841761, No Iterations 2
smoothSolver:  Solving for k, Initial residual = 0.0133002910611, Final residual = 0.00132508316865, No Iterations 8
ExecutionTime = 87.47 s  ClockTime = 88 s

Time = 23

smoothSolver:  Solving for Ux, Initial residual = 0.185604788427, Final residual = 0.0163393722032, No Iterations 17
smoothSolver:  Solving for Uy, Initial residual = 0.265433855891, Final residual = 0.0234916830887, No Iterations 17
smoothSolver:  Solving for Uz, Initial residual = 0.242250625099, Final residual = 0.0217871248967, No Iterations 17
GAMG:  Solving for p, Initial residual = 0.0932291783097, Final residual = 0.00477815638947, No Iterations 2
time step continuity errors : sum local = 1.16122377233e-05, global = -1.34458684215e-06, cumulative = 2.19465111401e-06
smoothSolver:  Solving for omega, Initial residual = 0.00206149663683, Final residual = 0.000128799348961, No Iterations 2
smoothSolver:  Solving for k, Initial residual = 0.0132931460248, Final residual = 0.00117471157101, No Iterations 9
ExecutionTime = 91.44 s  ClockTime = 92 s

Time = 24

smoothSolver:  Solving for Ux, Initial residual = 0.176484571937, Final residual = 0.0155386577447, No Iterations 17
smoothSolver:  Solving for Uy, Initial residual = 0.264910419671, Final residual = 0.023877911889, No Iterations 17
smoothSolver:  Solving for Uz, Initial residual = 0.246213850934, Final residual = 0.0224540851718, No Iterations 17
GAMG:  Solving for p, Initial residual = 0.0924700818075, Final residual = 0.00452322890235, No Iterations 2
time step continuity errors : sum local = 1.02044081804e-05, global = -1.65927976337e-06, cumulative = 5.3537135064e-07
smoothSolver:  Solving for omega, Initial residual = 0.0015914675905, Final residual = 0.000102676330545, No Iterations 2
smoothSolver:  Solving for k, Initial residual = 0.0144934446279, Final residual = 0.00135215921104, No Iterations 9
ExecutionTime = 95.45 s  ClockTime = 96 s

Time = 25

smoothSolver:  Solving for Ux, Initial residual = 0.168480480544, Final residual = 0.0166668407769, No Iterations 16
smoothSolver:  Solving for Uy, Initial residual = 0.265301450243, Final residual = 0.0234857989834, No Iterations 17
smoothSolver:  Solving for Uz, Initial residual = 0.252618679035, Final residual = 0.0224949711877, No Iterations 17
GAMG:  Solving for p, Initial residual = 0.0951079394178, Final residual = 0.00439849586176, No Iterations 2
time step continuity errors : sum local = 8.96516603598e-06, global = -1.59987697798e-06, cumulative = -1.06450562734e-06
smoothSolver:  Solving for omega, Initial residual = 0.00122553109736, Final residual = 8.23230841228e-05, No Iterations 2
smoothSolver:  Solving for k, Initial residual = 0.0156454510215, Final residual = 0.00153251243794, No Iterations 9
ExecutionTime = 99.42 s  ClockTime = 100 s

Time = 26

smoothSolver:  Solving for Ux, Initial residual = 0.160475243725, Final residual = 0.0151694573335, No Iterations 16
smoothSolver:  Solving for Uy, Initial residual = 0.261066535327, Final residual = 0.0256246172297, No Iterations 16
smoothSolver:  Solving for Uz, Initial residual = 0.256197816386, Final residual = 0.0251456098255, No Iterations 16
GAMG:  Solving for p, Initial residual = 0.0996170724947, Final residual = 0.0044992326563, No Iterations 2
time step continuity errors : sum local = 8.22548649197e-06, global = -1.3789293515e-06, cumulative = -2.44343497884e-06
smoothSolver:  Solving for omega, Initial residual = 0.000948911457562, Final residual = 6.75179191522e-05, No Iterations 2
smoothSolver:  Solving for k, Initial residual = 0.0179078916773, Final residual = 0.00171213764092, No Iterations 9
ExecutionTime = 103.34 s  ClockTime = 104 s

Time = 27

smoothSolver:  Solving for Ux, Initial residual = 0.151573548777, Final residual = 0.013546501575, No Iterations 16
smoothSolver:  Solving for Uy, Initial residual = 0.251738877296, Final residual = 0.0241746486241, No Iterations 16
smoothSolver:  Solving for Uz, Initial residual = 0.255406767003, Final residual = 0.0241730856647, No Iterations 16
GAMG:  Solving for p, Initial residual = 0.100743539585, Final residual = 0.00456105447964, No Iterations 2
time step continuity errors : sum local = 7.5392070968e-06, global = -1.02937074256e-06, cumulative = -3.4728057214e-06
smoothSolver:  Solving for omega, Initial residual = 0.000736731265826, Final residual = 5.65186769172e-05, No Iterations 2
smoothSolver:  Solving for k, Initial residual = 0.0197403978815, Final residual = 0.00190691842793, No Iterations 9
ExecutionTime = 107.21 s  ClockTime = 108 s

Time = 28

smoothSolver:  Solving for Ux, Initial residual = 0.142254403398, Final residual = 0.0123125979921, No Iterations 16
smoothSolver:  Solving for Uy, Initial residual = 0.240557230575, Final residual = 0.0231974559289, No Iterations 16
smoothSolver:  Solving for Uz, Initial residual = 0.254173915542, Final residual = 0.023957882786, No Iterations 16
GAMG:  Solving for p, Initial residual = 0.0999095410859, Final residual = 0.00442875314739, No Iterations 2
time step continuity errors : sum local = 6.72038892403e-06, global = -6.2410056108e-07, cumulative = -4.09690628248e-06
smoothSolver:  Solving for omega, Initial residual = 0.000572001374905, Final residual = 4.73420709671e-05, No Iterations 2
smoothSolver:  Solving for k, Initial residual = 0.0219193447934, Final residual = 0.00218486699768, No Iterations 9
ExecutionTime = 111.02 s  ClockTime = 111 s

Time = 29

smoothSolver:  Solving for Ux, Initial residual = 0.134475722373, Final residual = 0.011909077185, No Iterations 16
smoothSolver:  Solving for Uy, Initial residual = 0.2373034304, Final residual = 0.0226949392669, No Iterations 16
smoothSolver:  Solving for Uz, Initial residual = 0.254409014502, Final residual = 0.0241259275599, No Iterations 16
GAMG:  Solving for p, Initial residual = 0.0970110690619, Final residual = 0.00423999695813, No Iterations 2
time step continuity errors : sum local = 6.06727031735e-06, global = -2.58608686046e-07, cumulative = -4.35551496853e-06
smoothSolver:  Solving for omega, Initial residual = 0.000443686033556, Final residual = 3.99090954369e-05, No Iterations 2
smoothSolver:  Solving for k, Initial residual = 0.0246470037791, Final residual = 0.00244251550079, No Iterations 9
ExecutionTime = 115.19 s  ClockTime = 116 s

Time = 30

smoothSolver:  Solving for Ux, Initial residual = 0.125821908877, Final residual = 0.011932771046, No Iterations 16
smoothSolver:  Solving for Uy, Initial residual = 0.247364583656, Final residual = 0.0232486640111, No Iterations 16
smoothSolver:  Solving for Uz, Initial residual = 0.255437821178, Final residual = 0.0243304454897, No Iterations 16
GAMG:  Solving for p, Initial residual = 0.0960743765518, Final residual = 0.00405712581134, No Iterations 2
time step continuity errors : sum local = 5.42187978401e-06, global = 6.91632140131e-09, cumulative = -4.34859864713e-06
smoothSolver:  Solving for omega, Initial residual = 0.000344506436084, Final residual = 3.36607890067e-05, No Iterations 2
smoothSolver:  Solving for k, Initial residual = 0.0258277324279, Final residual = 0.00208780502894, No Iterations 10
ExecutionTime = 119.2 s  ClockTime = 120 s

Time = 31

smoothSolver:  Solving for Ux, Initial residual = 0.116496923668, Final residual = 0.0101643830091, No Iterations 17
smoothSolver:  Solving for Uy, Initial residual = 0.258073169697, Final residual = 0.024475069007, No Iterations 16
smoothSolver:  Solving for Uz, Initial residual = 0.251240633366, Final residual = 0.0241927572449, No Iterations 16
GAMG:  Solving for p, Initial residual = 0.0963753999321, Final residual = 0.00411371058519, No Iterations 2
time step continuity errors : sum local = 5.02556193014e-06, global = 1.45018586059e-07, cumulative = -4.20358006107e-06
smoothSolver:  Solving for omega, Initial residual = 0.000267262977882, Final residual = 2.21247692835e-05, No Iterations 3
smoothSolver:  Solving for k, Initial residual = 0.0249510612387, Final residual = 0.0021129294993, No Iterations 10
ExecutionTime = 123.11 s  ClockTime = 123 s

Time = 32

smoothSolver:  Solving for Ux, Initial residual = 0.107462094688, Final residual = 0.00947868849632, No Iterations 17
smoothSolver:  Solving for Uy, Initial residual = 0.253715549541, Final residual = 0.0244373722651, No Iterations 16
smoothSolver:  Solving for Uz, Initial residual = 0.23739767429, Final residual = 0.0230545130546, No Iterations 16
GAMG:  Solving for p, Initial residual = 0.0961677216839, Final residual = 0.00407735106283, No Iterations 2
time step continuity errors : sum local = 4.61847156849e-06, global = 1.39738681889e-07, cumulative = -4.06384137918e-06
smoothSolver:  Solving for omega, Initial residual = 0.00020510559045, Final residual = 1.73942747627e-05, No Iterations 3
smoothSolver:  Solving for k, Initial residual = 0.0230469268324, Final residual = 0.00209386631282, No Iterations 10
ExecutionTime = 127.07 s  ClockTime = 127 s

Time = 33

smoothSolver:  Solving for Ux, Initial residual = 0.0989883012189, Final residual = 0.00871664634692, No Iterations 17
smoothSolver:  Solving for Uy, Initial residual = 0.236941572726, Final residual = 0.02313210462, No Iterations 16
smoothSolver:  Solving for Uz, Initial residual = 0.217309370073, Final residual = 0.0212770846914, No Iterations 16
GAMG:  Solving for p, Initial residual = 0.0938635027262, Final residual = 0.00387407117594, No Iterations 2
time step continuity errors : sum local = 4.09140961935e-06, global = 5.1192879612e-08, cumulative = -4.01264849957e-06
smoothSolver:  Solving for omega, Initial residual = 0.000158314304234, Final residual = 1.39468830694e-05, No Iterations 3
smoothSolver:  Solving for k, Initial residual = 0.0221309281442, Final residual = 0.00202715501524, No Iterations 10
ExecutionTime = 130.95 s  ClockTime = 131 s

Time = 34

smoothSolver:  Solving for Ux, Initial residual = 0.0915210799487, Final residual = 0.00818273284355, No Iterations 17
smoothSolver:  Solving for Uy, Initial residual = 0.21740986372, Final residual = 0.0215412033525, No Iterations 16
smoothSolver:  Solving for Uz, Initial residual = 0.198685257491, Final residual = 0.0174554706655, No Iterations 17
GAMG:  Solving for p, Initial residual = 0.0902739708875, Final residual = 0.00359118521736, No Iterations 2
time step continuity errors : sum local = 3.55071195955e-06, global = -5.86983508024e-08, cumulative = -4.07134685037e-06
smoothSolver:  Solving for omega, Initial residual = 0.00012261188129, Final residual = 1.13067026148e-05, No Iterations 3
smoothSolver:  Solving for k, Initial residual = 0.0210351136062, Final residual = 0.00195556372339, No Iterations 10
ExecutionTime = 134.96 s  ClockTime = 135 s

Time = 35

smoothSolver:  Solving for Ux, Initial residual = 0.0842686112149, Final residual = 0.00763002036905, No Iterations 17
smoothSolver:  Solving for Uy, Initial residual = 0.200222666792, Final residual = 0.0177688070627, No Iterations 17
smoothSolver:  Solving for Uz, Initial residual = 0.185396708431, Final residual = 0.0169262017295, No Iterations 17
GAMG:  Solving for p, Initial residual = 0.0862330695456, Final residual = 0.00332928513834, No Iterations 2
time step continuity errors : sum local = 3.11962033245e-06, global = -1.31810735716e-07, cumulative = -4.20315758609e-06
smoothSolver:  Solving for omega, Initial residual = 9.47996806627e-05, Final residual = 9.16681205269e-06, No Iterations 3
smoothSolver:  Solving for k, Initial residual = 0.0198643240085, Final residual = 0.00187988969543, No Iterations 10
ExecutionTime = 138.87 s  ClockTime = 139 s

Time = 36

smoothSolver:  Solving for Ux, Initial residual = 0.0768132236791, Final residual = 0.00692453719844, No Iterations 17
smoothSolver:  Solving for Uy, Initial residual = 0.188419390191, Final residual = 0.0172004496957, No Iterations 17
smoothSolver:  Solving for Uz, Initial residual = 0.173330363185, Final residual = 0.016278754369, No Iterations 17
GAMG:  Solving for p, Initial residual = 0.082758516979, Final residual = 0.00321251236633, No Iterations 2
time step continuity errors : sum local = 2.836498624e-06, global = -1.70318595067e-07, cumulative = -4.37347618115e-06
smoothSolver:  Solving for omega, Initial residual = 7.31800596656e-05, Final residual = 6.02517926641e-06, No Iterations 4
smoothSolver:  Solving for k, Initial residual = 0.0185954491999, Final residual = 0.00178877356945, No Iterations 10
ExecutionTime = 142.86 s  ClockTime = 143 s

Time = 37

smoothSolver:  Solving for Ux, Initial residual = 0.0696592507623, Final residual = 0.00626702103014, No Iterations 17
smoothSolver:  Solving for Uy, Initial residual = 0.177473262015, Final residual = 0.0162773248984, No Iterations 17
smoothSolver:  Solving for Uz, Initial residual = 0.162378855112, Final residual = 0.0154213027244, No Iterations 17
GAMG:  Solving for p, Initial residual = 0.0796878457372, Final residual = 0.00311397114833, No Iterations 2
time step continuity errors : sum local = 2.62269559123e-06, global = -1.9714596889e-07, cumulative = -4.57062215004e-06
smoothSolver:  Solving for omega, Initial residual = 5.61146031933e-05, Final residual = 4.55958742472e-06, No Iterations 4
smoothSolver:  Solving for k, Initial residual = 0.0169966296834, Final residual = 0.00166894566049, No Iterations 10
ExecutionTime = 146.91 s  ClockTime = 147 s

Time = 38

smoothSolver:  Solving for Ux, Initial residual = 0.062712548156, Final residual = 0.00574563334142, No Iterations 17
smoothSolver:  Solving for Uy, Initial residual = 0.167520435523, Final residual = 0.0151821108009, No Iterations 17
smoothSolver:  Solving for Uz, Initial residual = 0.152742721258, Final residual = 0.0143525054741, No Iterations 17
GAMG:  Solving for p, Initial residual = 0.0770594671697, Final residual = 0.00304055253231, No Iterations 2
time step continuity errors : sum local = 2.42423054398e-06, global = -2.15047142237e-07, cumulative = -4.78566929228e-06
smoothSolver:  Solving for omega, Initial residual = 4.2857809742e-05, Final residual = 4.24262802827e-06, No Iterations 3
smoothSolver:  Solving for k, Initial residual = 0.0150923230157, Final residual = 0.0014880727972, No Iterations 10
ExecutionTime = 150.82 s  ClockTime = 151 s

Time = 39

smoothSolver:  Solving for Ux, Initial residual = 0.0565780651778, Final residual = 0.00534534503331, No Iterations 17
smoothSolver:  Solving for Uy, Initial residual = 0.158272856245, Final residual = 0.0142282844839, No Iterations 17
smoothSolver:  Solving for Uz, Initial residual = 0.144003800943, Final residual = 0.0133687083645, No Iterations 17
GAMG:  Solving for p, Initial residual = 0.074452462791, Final residual = 0.00297239570326, No Iterations 2
time step continuity errors : sum local = 2.26467455128e-06, global = -2.08976020133e-07, cumulative = -4.99464531241e-06
smoothSolver:  Solving for omega, Initial residual = 3.29133253004e-05, Final residual = 3.27117514003e-06, No Iterations 3
smoothSolver:  Solving for k, Initial residual = 0.0130676006964, Final residual = 0.00125475146543, No Iterations 10
ExecutionTime = 154.86 s  ClockTime = 155 s

Time = 40

smoothSolver:  Solving for Ux, Initial residual = 0.0513238390999, Final residual = 0.00498941435014, No Iterations 17
smoothSolver:  Solving for Uy, Initial residual = 0.149490131585, Final residual = 0.0134188106356, No Iterations 17
smoothSolver:  Solving for Uz, Initial residual = 0.136579846065, Final residual = 0.0126035291057, No Iterations 17
GAMG:  Solving for p, Initial residual = 0.0717745755486, Final residual = 0.00287244059877, No Iterations 2
time step continuity errors : sum local = 2.09977556133e-06, global = -1.76384603327e-07, cumulative = -5.17102991574e-06
smoothSolver:  Solving for omega, Initial residual = 2.51856537482e-05, Final residual = 2.47467369146e-06, No Iterations 3
smoothSolver:  Solving for k, Initial residual = 0.011107076209, Final residual = 0.00102237575108, No Iterations 10
ExecutionTime = 158.75 s  ClockTime = 159 s

Time = 41

smoothSolver:  Solving for Ux, Initial residual = 0.0471294113873, Final residual = 0.00464289865276, No Iterations 17
smoothSolver:  Solving for Uy, Initial residual = 0.140753667665, Final residual = 0.012661010532, No Iterations 17
smoothSolver:  Solving for Uz, Initial residual = 0.129760958578, Final residual = 0.0119806066897, No Iterations 17
GAMG:  Solving for p, Initial residual = 0.0693647085127, Final residual = 0.00271048207598, No Iterations 2
time step continuity errors : sum local = 1.91213457833e-06, global = -1.22015072057e-07, cumulative = -5.2930449878e-06
smoothSolver:  Solving for omega, Initial residual = 1.9252234636e-05, Final residual = 1.81137163514e-06, No Iterations 3
smoothSolver:  Solving for k, Initial residual = 0.00937877755879, Final residual = 0.00083988901679, No Iterations 10
ExecutionTime = 162.71 s  ClockTime = 163 s

Time = 42

smoothSolver:  Solving for Ux, Initial residual = 0.0437624311719, Final residual = 0.00431238344444, No Iterations 17
smoothSolver:  Solving for Uy, Initial residual = 0.131731564314, Final residual = 0.0118483339247, No Iterations 17
smoothSolver:  Solving for Uz, Initial residual = 0.122416235876, Final residual = 0.0113313036511, No Iterations 17
GAMG:  Solving for p, Initial residual = 0.066629994324, Final residual = 0.00253502564206, No Iterations 2
time step continuity errors : sum local = 1.7217956106e-06, global = -5.71315870229e-08, cumulative = -5.35017657482e-06
smoothSolver:  Solving for omega, Initial residual = 1.45822170294e-05, Final residual = 1.29258481604e-06, No Iterations 3
smoothSolver:  Solving for k, Initial residual = 0.00786049125749, Final residual = 0.000692520222591, No Iterations 10
ExecutionTime = 166.74 s  ClockTime = 167 s

Time = 43

smoothSolver:  Solving for Ux, Initial residual = 0.0406549934532, Final residual = 0.00400690971793, No Iterations 17
smoothSolver:  Solving for Uy, Initial residual = 0.122131555296, Final residual = 0.0110108336153, No Iterations 17
smoothSolver:  Solving for Uz, Initial residual = 0.114320754891, Final residual = 0.0106044033373, No Iterations 17
GAMG:  Solving for p, Initial residual = 0.0638273519361, Final residual = 0.00233460113856, No Iterations 2
time step continuity errors : sum local = 1.52619906731e-06, global = 8.99675853701e-09, cumulative = -5.34117981629e-06
smoothSolver:  Solving for omega, Initial residual = 1.10086924052e-05, Final residual = 9.13745758027e-07, No Iterations 3
smoothSolver:  Solving for k, Initial residual = 0.00653706367004, Final residual = 0.00056590159667, No Iterations 10
ExecutionTime = 170.66 s  ClockTime = 171 s

Time = 44

smoothSolver:  Solving for Ux, Initial residual = 0.0377366601509, Final residual = 0.00372320623105, No Iterations 17
smoothSolver:  Solving for Uy, Initial residual = 0.113038134037, Final residual = 0.0101982236729, No Iterations 17
smoothSolver:  Solving for Uz, Initial residual = 0.106575178395, Final residual = 0.00981020901422, No Iterations 17
GAMG:  Solving for p, Initial residual = 0.0608836147772, Final residual = 0.00213517613628, No Iterations 2
time step continuity errors : sum local = 1.33843373848e-06, global = 6.88578896321e-08, cumulative = -5.27232192665e-06
smoothSolver:  Solving for omega, Initial residual = 8.31029344189e-06, Final residual = 6.43814317058e-07, No Iterations 3
smoothSolver:  Solving for k, Initial residual = 0.00542133760154, Final residual = 0.000466902178052, No Iterations 10
ExecutionTime = 174.66 s  ClockTime = 175 s

Time = 45

smoothSolver:  Solving for Ux, Initial residual = 0.0349348698377, Final residual = 0.00346051112892, No Iterations 17
smoothSolver:  Solving for Uy, Initial residual = 0.104632600383, Final residual = 0.00941168840594, No Iterations 17
smoothSolver:  Solving for Uz, Initial residual = 0.0991240688082, Final residual = 0.00901730382397, No Iterations 17
GAMG:  Solving for p, Initial residual = 0.0579008706193, Final residual = 0.00194381021241, No Iterations 2
time step continuity errors : sum local = 1.17083798004e-06, global = 1.120212651e-07, cumulative = -5.16030066155e-06
smoothSolver:  Solving for omega, Initial residual = 6.24455169044e-06, Final residual = 4.5314767668e-07, No Iterations 3
smoothSolver:  Solving for k, Initial residual = 0.00455100341729, Final residual = 0.000402291452998, No Iterations 10
ExecutionTime = 178.7 s  ClockTime = 179 s

Time = 46

smoothSolver:  Solving for Ux, Initial residual = 0.0322575815895, Final residual = 0.00321578170985, No Iterations 17
smoothSolver:  Solving for Uy, Initial residual = 0.0963419251886, Final residual = 0.00863774458179, No Iterations 17
smoothSolver:  Solving for Uz, Initial residual = 0.0914776145819, Final residual = 0.0082614417397, No Iterations 17
GAMG:  Solving for p, Initial residual = 0.0549991124981, Final residual = 0.00179454454228, No Iterations 2
time step continuity errors : sum local = 1.03806928605e-06, global = 1.29680149841e-07, cumulative = -5.03062051171e-06
smoothSolver:  Solving for omega, Initial residual = 4.74138438221e-06, Final residual = 4.55724828703e-07, No Iterations 2
smoothSolver:  Solving for k, Initial residual = 0.00391097891911, Final residual = 0.000355118733505, No Iterations 10
ExecutionTime = 182.96 s  ClockTime = 183 s

Time = 47

smoothSolver:  Solving for Ux, Initial residual = 0.029853194789, Final residual = 0.00262082874576, No Iterations 18
smoothSolver:  Solving for Uy, Initial residual = 0.0886424316092, Final residual = 0.00791955002487, No Iterations 17
smoothSolver:  Solving for Uz, Initial residual = 0.0838562578147, Final residual = 0.00754744064626, No Iterations 17
GAMG:  Solving for p, Initial residual = 0.0522753874286, Final residual = 0.00167524650038, No Iterations 2
time step continuity errors : sum local = 9.32051948007e-07, global = 1.21087638743e-07, cumulative = -4.90953287297e-06
smoothSolver:  Solving for omega, Initial residual = 3.55065380081e-06, Final residual = 3.47156107751e-07, No Iterations 2
smoothSolver:  Solving for k, Initial residual = 0.00340731371319, Final residual = 0.000312521496862, No Iterations 10
ExecutionTime = 187 s  ClockTime = 187 s

Time = 48

smoothSolver:  Solving for Ux, Initial residual = 0.0278523704593, Final residual = 0.00244506426231, No Iterations 18
smoothSolver:  Solving for Uy, Initial residual = 0.081222419701, Final residual = 0.0072477805718, No Iterations 17
smoothSolver:  Solving for Uz, Initial residual = 0.0764861046686, Final residual = 0.00686459815799, No Iterations 17
GAMG:  Solving for p, Initial residual = 0.050073514898, Final residual = 0.00159646600105, No Iterations 2
time step continuity errors : sum local = 8.54363622561e-07, global = 9.40918058446e-08, cumulative = -4.81544106712e-06
smoothSolver:  Solving for omega, Initial residual = 2.76024799882e-06, Final residual = 2.75618172355e-07, No Iterations 2
smoothSolver:  Solving for k, Initial residual = 0.00303409073709, Final residual = 0.000270235842367, No Iterations 10
ExecutionTime = 190.96 s  ClockTime = 192 s

Time = 49

smoothSolver:  Solving for Ux, Initial residual = 0.0258444526703, Final residual = 0.00258308665528, No Iterations 17
smoothSolver:  Solving for Uy, Initial residual = 0.0751548965458, Final residual = 0.00673166252203, No Iterations 17
smoothSolver:  Solving for Uz, Initial residual = 0.0705652168072, Final residual = 0.00631503523896, No Iterations 17
GAMG:  Solving for p, Initial residual = 0.0479917188703, Final residual = 0.00151245254953, No Iterations 2
time step continuity errors : sum local = 7.78971838542e-07, global = 5.88962935212e-08, cumulative = -4.7565447736e-06
smoothSolver:  Solving for omega, Initial residual = 2.10285653536e-06, Final residual = 1.59527569384e-07, No Iterations 3
smoothSolver:  Solving for k, Initial residual = 0.0027795874113, Final residual = 0.000230864806791, No Iterations 10
ExecutionTime = 195.01 s  ClockTime = 196 s

Time = 50

smoothSolver:  Solving for Ux, Initial residual = 0.0239280754489, Final residual = 0.00238471792544, No Iterations 17
smoothSolver:  Solving for Uy, Initial residual = 0.0702561821355, Final residual = 0.00631170782701, No Iterations 17
smoothSolver:  Solving for Uz, Initial residual = 0.0660369235255, Final residual = 0.00589077873344, No Iterations 17
GAMG:  Solving for p, Initial residual = 0.0457911215335, Final residual = 0.00141760113031, No Iterations 2
time step continuity errors : sum local = 7.04255301918e-07, global = 2.38253397663e-08, cumulative = -4.73271943384e-06
smoothSolver:  Solving for omega, Initial residual = 1.60786847008e-06, Final residual = 1.18209843348e-07, No Iterations 3
smoothSolver:  Solving for k, Initial residual = 0.00261670273574, Final residual = 0.000253292398446, No Iterations 9
ExecutionTime = 199.06 s  ClockTime = 200 s

Time = 51

smoothSolver:  Solving for Ux, Initial residual = 0.0225021523647, Final residual = 0.00222901362318, No Iterations 17
smoothSolver:  Solving for Uy, Initial residual = 0.0650545254628, Final residual = 0.00584424630252, No Iterations 17
smoothSolver:  Solving for Uz, Initial residual = 0.0613063224869, Final residual = 0.00548248576102, No Iterations 17
GAMG:  Solving for p, Initial residual = 0.0436618613159, Final residual = 0.00133824604142, No Iterations 2
time step continuity errors : sum local = 6.47681797069e-07, global = -6.47759110117e-09, cumulative = -4.73919702494e-06
smoothSolver:  Solving for omega, Initial residual = 1.2323363506e-06, Final residual = 9.35421166513e-08, No Iterations 3
smoothSolver:  Solving for k, Initial residual = 0.0025292377418, Final residual = 0.000243533102927, No Iterations 9
ExecutionTime = 203.15 s  ClockTime = 204 s

Time = 52

smoothSolver:  Solving for Ux, Initial residual = 0.0211364319624, Final residual = 0.00208150898743, No Iterations 17
smoothSolver:  Solving for Uy, Initial residual = 0.060615976456, Final residual = 0.00539215966623, No Iterations 17
smoothSolver:  Solving for Uz, Initial residual = 0.0571026246266, Final residual = 0.00509450247517, No Iterations 17
GAMG:  Solving for p, Initial residual = 0.0416235098479, Final residual = 0.00126447702764, No Iterations 2
time step continuity errors : sum local = 5.95543430965e-07, global = -3.01823288445e-08, cumulative = -4.76937935378e-06
smoothSolver:  Solving for omega, Initial residual = 9.51870651786e-07, Final residual = 7.79581596303e-08, No Iterations 3
smoothSolver:  Solving for k, Initial residual = 0.0024539787834, Final residual = 0.000202112820206, No Iterations 10
ExecutionTime = 207.17 s  ClockTime = 208 s

Time = 53

smoothSolver:  Solving for Ux, Initial residual = 0.0197773415611, Final residual = 0.00194258390911, No Iterations 17
smoothSolver:  Solving for Uy, Initial residual = 0.0565703046196, Final residual = 0.00498488732446, No Iterations 17
smoothSolver:  Solving for Uz, Initial residual = 0.0534196488183, Final residual = 0.00473382646796, No Iterations 17
GAMG:  Solving for p, Initial residual = 0.0398139818432, Final residual = 0.00118553847064, No Iterations 2
time step continuity errors : sum local = 5.47294159444e-07, global = -4.52525954829e-08, cumulative = -4.81463194927e-06
smoothSolver:  Solving for omega, Initial residual = 7.55569882014e-07, Final residual = 6.7197281478e-08, No Iterations 3
smoothSolver:  Solving for k, Initial residual = 0.00240007230054, Final residual = 0.000211217123604, No Iterations 10
ExecutionTime = 211.43 s  ClockTime = 212 s

Time = 54

smoothSolver:  Solving for Ux, Initial residual = 0.0185097287913, Final residual = 0.00180981339225, No Iterations 17
smoothSolver:  Solving for Uy, Initial residual = 0.0530373420185, Final residual = 0.00530132252285, No Iterations 16
smoothSolver:  Solving for Uz, Initial residual = 0.0500440084292, Final residual = 0.00438636748695, No Iterations 17
GAMG:  Solving for p, Initial residual = 0.0381267146674, Final residual = 0.00111129020157, No Iterations 2
time step continuity errors : sum local = 5.02405139558e-07, global = -5.12016933396e-08, cumulative = -4.8658336426e-06
smoothSolver:  Solving for omega, Initial residual = 5.78460498029e-07, Final residual = 4.66127790337e-08, No Iterations 4
smoothSolver:  Solving for k, Initial residual = 0.00236316809642, Final residual = 0.000214738344026, No Iterations 10
ExecutionTime = 215.46 s  ClockTime = 216 s

Time = 55

smoothSolver:  Solving for Ux, Initial residual = 0.0173790894723, Final residual = 0.00169087258029, No Iterations 17
smoothSolver:  Solving for Uy, Initial residual = 0.0485452144667, Final residual = 0.0048303153207, No Iterations 16
smoothSolver:  Solving for Uz, Initial residual = 0.0468318422688, Final residual = 0.00467078912332, No Iterations 16
GAMG:  Solving for p, Initial residual = 0.0364326151847, Final residual = 0.00104630704482, No Iterations 2
time step continuity errors : sum local = 4.65943478631e-07, global = -4.83952947405e-08, cumulative = -4.91422893735e-06
smoothSolver:  Solving for omega, Initial residual = 4.7348199086e-07, Final residual = 4.01060440146e-08, No Iterations 4
smoothSolver:  Solving for k, Initial residual = 0.00231656606274, Final residual = 0.000210495765866, No Iterations 10
ExecutionTime = 219.39 s  ClockTime = 220 s

Time = 56

smoothSolver:  Solving for Ux, Initial residual = 0.016340677912, Final residual = 0.00157635102573, No Iterations 17
smoothSolver:  Solving for Uy, Initial residual = 0.0456019501766, Final residual = 0.00450626359442, No Iterations 16
smoothSolver:  Solving for Uz, Initial residual = 0.0429767626675, Final residual = 0.00424423136439, No Iterations 16
GAMG:  Solving for p, Initial residual = 0.0346653263101, Final residual = 0.000994730468766, No Iterations 2
time step continuity errors : sum local = 4.36010438934e-07, global = -3.83406273857e-08, cumulative = -4.95256956473e-06
smoothSolver:  Solving for omega, Initial residual = 3.6239797628e-07, Final residual = 3.60392724575e-08, No Iterations 4
smoothSolver:  Solving for k, Initial residual = 0.0022377267156, Final residual = 0.000203324571841, No Iterations 10
ExecutionTime = 223.31 s  ClockTime = 224 s

Time = 57

smoothSolver:  Solving for Ux, Initial residual = 0.0152784636857, Final residual = 0.00146382541237, No Iterations 17
smoothSolver:  Solving for Uy, Initial residual = 0.0426454406797, Final residual = 0.00420186735217, No Iterations 16
smoothSolver:  Solving for Uz, Initial residual = 0.0398603963117, Final residual = 0.00390878525552, No Iterations 16
GAMG:  Solving for p, Initial residual = 0.0329943045762, Final residual = 0.000951755079708, No Iterations 2
time step continuity errors : sum local = 4.11919407302e-07, global = -2.36665118104e-08, cumulative = -4.97623607654e-06
smoothSolver:  Solving for omega, Initial residual = 3.0389504986e-07, Final residual = 2.67351337653e-08, No Iterations 5
smoothSolver:  Solving for k, Initial residual = 0.00212186921744, Final residual = 0.000195519675995, No Iterations 10
ExecutionTime = 227.28 s  ClockTime = 228 s

Time = 58

smoothSolver:  Solving for Ux, Initial residual = 0.0143044845352, Final residual = 0.00135837755051, No Iterations 17
smoothSolver:  Solving for Uy, Initial residual = 0.0397294997253, Final residual = 0.00390431565126, No Iterations 16
smoothSolver:  Solving for Uz, Initial residual = 0.0370495114099, Final residual = 0.00360905204019, No Iterations 16
GAMG:  Solving for p, Initial residual = 0.0314018214849, Final residual = 0.000881425076361, No Iterations 2
time step continuity errors : sum local = 3.76081369443e-07, global = -7.6964379852e-09, cumulative = -4.98393251453e-06
smoothSolver:  Solving for omega, Initial residual = 2.40602333706e-07, Final residual = 2.30491577872e-08, No Iterations 5
smoothSolver:  Solving for k, Initial residual = 0.0019953177387, Final residual = 0.000186214611551, No Iterations 10
ExecutionTime = 231.2 s  ClockTime = 232 s

Time = 59

smoothSolver:  Solving for Ux, Initial residual = 0.0134126021801, Final residual = 0.00126321140639, No Iterations 17
smoothSolver:  Solving for Uy, Initial residual = 0.0369362939574, Final residual = 0.00362927160995, No Iterations 16
smoothSolver:  Solving for Uz, Initial residual = 0.0343537372534, Final residual = 0.00333081474092, No Iterations 16
GAMG:  Solving for p, Initial residual = 0.0298223711892, Final residual = 0.000797350694813, No Iterations 2
time step continuity errors : sum local = 3.35916943593e-07, global = 7.64581729658e-09, cumulative = -4.97628669723e-06
smoothSolver:  Solving for omega, Initial residual = 1.97777355183e-07, Final residual = 1.62240730092e-08, No Iterations 6
smoothSolver:  Solving for k, Initial residual = 0.00186760333833, Final residual = 0.000175694341271, No Iterations 10
ExecutionTime = 235.21 s  ClockTime = 236 s

Time = 60

smoothSolver:  Solving for Ux, Initial residual = 0.0126049512797, Final residual = 0.00117633741919, No Iterations 17
smoothSolver:  Solving for Uy, Initial residual = 0.0344519930078, Final residual = 0.00338235470851, No Iterations 16
smoothSolver:  Solving for Uz, Initial residual = 0.0318787389734, Final residual = 0.00308523859383, No Iterations 16
GAMG:  Solving for p, Initial residual = 0.0282759546967, Final residual = 0.000718855882369, No Iterations 2
time step continuity errors : sum local = 2.98511389363e-07, global = 2.08095705339e-08, cumulative = -4.9554771267e-06
smoothSolver:  Solving for omega, Initial residual = 1.65928548525e-07, Final residual = 1.37336096125e-08, No Iterations 6
smoothSolver:  Solving for k, Initial residual = 0.00173783380208, Final residual = 0.000163056043868, No Iterations 10
ExecutionTime = 239.2 s  ClockTime = 240 s

Time = 61

smoothSolver:  Solving for Ux, Initial residual = 0.0118370756365, Final residual = 0.00109766894702, No Iterations 17
smoothSolver:  Solving for Uy, Initial residual = 0.0321672980927, Final residual = 0.0031584625023, No Iterations 16
smoothSolver:  Solving for Uz, Initial residual = 0.029726712899, Final residual = 0.00287606934899, No Iterations 16
GAMG:  Solving for p, Initial residual = 0.0267523355839, Final residual = 0.000653593407629, No Iterations 2
time step continuity errors : sum local = 2.68100285883e-07, global = 3.04873167598e-08, cumulative = -4.92498980994e-06
smoothSolver:  Solving for omega, Initial residual = 1.28849210798e-07, Final residual = 1.22395764065e-08, No Iterations 6
smoothSolver:  Solving for k, Initial residual = 0.00161429378697, Final residual = 0.000149438026904, No Iterations 10
ExecutionTime = 243.17 s  ClockTime = 244 s

Time = 62

smoothSolver:  Solving for Ux, Initial residual = 0.0111128655604, Final residual = 0.0010249871709, No Iterations 17
smoothSolver:  Solving for Uy, Initial residual = 0.030160923671, Final residual = 0.00295614092387, No Iterations 16
smoothSolver:  Solving for Uz, Initial residual = 0.0278451436906, Final residual = 0.0026906822637, No Iterations 16
GAMG:  Solving for p, Initial residual = 0.0254048699839, Final residual = 0.000614826979937, No Iterations 2
time step continuity errors : sum local = 2.48250974597e-07, global = 3.45955891136e-08, cumulative = -4.89039422082e-06
smoothSolver:  Solving for omega, Initial residual = 1.19454789235e-07, Final residual = 1.09545749134e-08, No Iterations 6
smoothSolver:  Solving for k, Initial residual = 0.00148978408963, Final residual = 0.000135578638254, No Iterations 10
ExecutionTime = 247.58 s  ClockTime = 248 s

Time = 63

smoothSolver:  Solving for Ux, Initial residual = 0.0104188443043, Final residual = 0.000958621709891, No Iterations 17
smoothSolver:  Solving for Uy, Initial residual = 0.02829577632, Final residual = 0.0027724482991, No Iterations 16
smoothSolver:  Solving for Uz, Initial residual = 0.0260609327102, Final residual = 0.00251833380319, No Iterations 16
GAMG:  Solving for p, Initial residual = 0.0241293542643, Final residual = 0.000585527928529, No Iterations 2
time step continuity errors : sum local = 2.33437374793e-07, global = 3.26292175843e-08, cumulative = -4.85776500324e-06
smoothSolver:  Solving for omega, Initial residual = 9.08530684549e-08, Final residual = 8.08144551796e-09, No Iterations 7
smoothSolver:  Solving for k, Initial residual = 0.00137109617525, Final residual = 0.000122212113394, No Iterations 10
ExecutionTime = 251.6 s  ClockTime = 252 s

Time = 64

smoothSolver:  Solving for Ux, Initial residual = 0.0097828959913, Final residual = 0.000898481430049, No Iterations 17
smoothSolver:  Solving for Uy, Initial residual = 0.0265175499736, Final residual = 0.00260135114241, No Iterations 16
smoothSolver:  Solving for Uz, Initial residual = 0.0243662279814, Final residual = 0.00235500441986, No Iterations 16
GAMG:  Solving for p, Initial residual = 0.0229138790759, Final residual = 0.000549138431516, No Iterations 2
time step continuity errors : sum local = 2.15799010472e-07, global = 2.62516767005e-08, cumulative = -4.83151332654e-06
smoothSolver:  Solving for omega, Initial residual = 8.58316407023e-08, Final residual = 8.88577919686e-09, No Iterations 6
smoothSolver:  Solving for k, Initial residual = 0.00125737703562, Final residual = 0.000109535444237, No Iterations 10
ExecutionTime = 255.57 s  ClockTime = 256 s

Time = 65

smoothSolver:  Solving for Ux, Initial residual = 0.0091692991994, Final residual = 0.000843952985804, No Iterations 17
smoothSolver:  Solving for Uy, Initial residual = 0.0248015066503, Final residual = 0.00243817437643, No Iterations 16
smoothSolver:  Solving for Uz, Initial residual = 0.0227202305291, Final residual = 0.00220170905982, No Iterations 16
GAMG:  Solving for p, Initial residual = 0.0216082438109, Final residual = 0.000506027270587, No Iterations 2
time step continuity errors : sum local = 1.96469805562e-07, global = 1.76545569004e-08, cumulative = -4.81385876964e-06
smoothSolver:  Solving for omega, Initial residual = 7.03315865832e-08, Final residual = 8.43590804499e-09, No Iterations 6
smoothSolver:  Solving for k, Initial residual = 0.00115306413448, Final residual = 9.84798137859e-05, No Iterations 10
ExecutionTime = 259.55 s  ClockTime = 260 s

Time = 66

smoothSolver:  Solving for Ux, Initial residual = 0.00862358361718, Final residual = 0.000793815736267, No Iterations 17
smoothSolver:  Solving for Uy, Initial residual = 0.0232048234914, Final residual = 0.00228268794023, No Iterations 16
smoothSolver:  Solving for Uz, Initial residual = 0.0211478873622, Final residual = 0.00205723105485, No Iterations 16
GAMG:  Solving for p, Initial residual = 0.0204046444023, Final residual = 0.000470801418358, No Iterations 2
time step continuity errors : sum local = 1.803524438e-07, global = 8.08303268862e-09, cumulative = -4.80577573695e-06
smoothSolver:  Solving for omega, Initial residual = 6.64181514297e-08, Final residual = 8.12162524211e-09, No Iterations 6
smoothSolver:  Solving for k, Initial residual = 0.00105643233771, Final residual = 8.87219774911e-05, No Iterations 10
ExecutionTime = 263.5 s  ClockTime = 264 s

Time = 67

smoothSolver:  Solving for Ux, Initial residual = 0.00811950754339, Final residual = 0.000747745240692, No Iterations 17
smoothSolver:  Solving for Uy, Initial residual = 0.0217627430884, Final residual = 0.00213895462813, No Iterations 16
smoothSolver:  Solving for Uz, Initial residual = 0.0197168160198, Final residual = 0.0019215801657, No Iterations 16
GAMG:  Solving for p, Initial residual = 0.0193033786848, Final residual = 0.00044288414854, No Iterations 2
time step continuity errors : sum local = 1.67888907606e-07, global = -1.7532700703e-09, cumulative = -4.80752900702e-06
smoothSolver:  Solving for omega, Initial residual = 6.06303804718e-08, Final residual = 9.79418006373e-09, No Iterations 5
smoothSolver:  Solving for k, Initial residual = 0.000975127655152, Final residual = 8.07089381994e-05, No Iterations 10
ExecutionTime = 267.49 s  ClockTime = 268 s

Time = 68

smoothSolver:  Solving for Ux, Initial residual = 0.00764858082532, Final residual = 0.000703374350572, No Iterations 17
smoothSolver:  Solving for Uy, Initial residual = 0.0204497345251, Final residual = 0.00200173808344, No Iterations 16
smoothSolver:  Solving for Uz, Initial residual = 0.018432593335, Final residual = 0.00178997713873, No Iterations 16
GAMG:  Solving for p, Initial residual = 0.0183432764347, Final residual = 0.00042290236225, No Iterations 2
time step continuity errors : sum local = 1.58639503124e-07, global = -1.101871252e-08, cumulative = -4.81854771954e-06
smoothSolver:  Solving for omega, Initial residual = 5.38477809037e-08, Final residual = 9.87681891922e-09, No Iterations 5
smoothSolver:  Solving for k, Initial residual = 0.0009162549851, Final residual = 7.47300461007e-05, No Iterations 10
ExecutionTime = 271.41 s  ClockTime = 272 s

Time = 69

smoothSolver:  Solving for Ux, Initial residual = 0.00721013419178, Final residual = 0.000662509655579, No Iterations 17
smoothSolver:  Solving for Uy, Initial residual = 0.0192182756057, Final residual = 0.00187360888852, No Iterations 16
smoothSolver:  Solving for Uz, Initial residual = 0.0172300967822, Final residual = 0.00166373935102, No Iterations 16
GAMG:  Solving for p, Initial residual = 0.0176199042207, Final residual = 0.000398283328019, No Iterations 2
time step continuity errors : sum local = 1.48416216149e-07, global = -1.85038158677e-08, cumulative = -4.83705153541e-06
smoothSolver:  Solving for omega, Initial residual = 5.26666600414e-08, Final residual = 9.69559314685e-09, No Iterations 5
smoothSolver:  Solving for k, Initial residual = 0.000868761265354, Final residual = 7.07347390735e-05, No Iterations 10
ExecutionTime = 275.41 s  ClockTime = 276 s

Time = 70

smoothSolver:  Solving for Ux, Initial residual = 0.0068147453067, Final residual = 0.000622900964801, No Iterations 17
smoothSolver:  Solving for Uy, Initial residual = 0.0180828835222, Final residual = 0.00175180484181, No Iterations 16
smoothSolver:  Solving for Uz, Initial residual = 0.0161961661482, Final residual = 0.00154779870037, No Iterations 16
GAMG:  Solving for p, Initial residual = 0.016665710004, Final residual = 0.000365216021043, No Iterations 2
time step continuity errors : sum local = 1.34835338425e-07, global = -2.27895152613e-08, cumulative = -4.85984105067e-06
smoothSolver:  Solving for omega, Initial residual = 4.51207629565e-08, Final residual = 9.48966664901e-09, No Iterations 5
smoothSolver:  Solving for k, Initial residual = 0.000828724776883, Final residual = 6.91537289268e-05, No Iterations 10
ExecutionTime = 279.44 s  ClockTime = 280 s

Time = 71

smoothSolver:  Solving for Ux, Initial residual = 0.00643137070395, Final residual = 0.000583866115814, No Iterations 17
smoothSolver:  Solving for Uy, Initial residual = 0.0169689414595, Final residual = 0.00164121975728, No Iterations 16
smoothSolver:  Solving for Uz, Initial residual = 0.0151820131591, Final residual = 0.00144841355448, No Iterations 16
GAMG:  Solving for p, Initial residual = 0.0157410566037, Final residual = 0.000356852218968, No Iterations 2
time step continuity errors : sum local = 1.310765005e-07, global = -2.34620192921e-08, cumulative = -4.88330306996e-06
smoothSolver:  Solving for omega, Initial residual = 4.74810755054e-08, Final residual = 9.19294862416e-09, No Iterations 5
smoothSolver:  Solving for k, Initial residual = 0.000797698119941, Final residual = 7.00801248702e-05, No Iterations 10
ExecutionTime = 283.39 s  ClockTime = 284 s

Time = 72

smoothSolver:  Solving for Ux, Initial residual = 0.00607914382401, Final residual = 0.000544611576464, No Iterations 17
smoothSolver:  Solving for Uy, Initial residual = 0.0160369424545, Final residual = 0.00153942999637, No Iterations 16
smoothSolver:  Solving for Uz, Initial residual = 0.0143750087805, Final residual = 0.00136654854065, No Iterations 16
GAMG:  Solving for p, Initial residual = 0.0148766715688, Final residual = 0.000344503145353, No Iterations 2
time step continuity errors : sum local = 1.25897937787e-07, global = -2.13217823623e-08, cumulative = -4.90462485232e-06
smoothSolver:  Solving for omega, Initial residual = 4.18700511577e-08, Final residual = 9.05787269886e-09, No Iterations 5
smoothSolver:  Solving for k, Initial residual = 0.000790808849476, Final residual = 7.36112297691e-05, No Iterations 10
ExecutionTime = 287.37 s  ClockTime = 288 s

Time = 73

smoothSolver:  Solving for Ux, Initial residual = 0.00572673566356, Final residual = 0.000507218695807, No Iterations 17
smoothSolver:  Solving for Uy, Initial residual = 0.0152248652173, Final residual = 0.00144539085657, No Iterations 16
smoothSolver:  Solving for Uz, Initial residual = 0.0136497443654, Final residual = 0.00129565713652, No Iterations 16
GAMG:  Solving for p, Initial residual = 0.0142268490856, Final residual = 0.000346984117976, No Iterations 2
time step continuity errors : sum local = 1.26550435352e-07, global = -1.7453976533e-08, cumulative = -4.92207882886e-06
smoothSolver:  Solving for omega, Initial residual = 4.31484975754e-08, Final residual = 9.07539844264e-09, No Iterations 5
smoothSolver:  Solving for k, Initial residual = 0.000820020609996, Final residual = 7.92379757941e-05, No Iterations 10
ExecutionTime = 291.28 s  ClockTime = 292 s

Time = 74

smoothSolver:  Solving for Ux, Initial residual = 0.00541820506167, Final residual = 0.000472749690409, No Iterations 17
smoothSolver:  Solving for Uy, Initial residual = 0.0145028977621, Final residual = 0.00136027952718, No Iterations 16
smoothSolver:  Solving for Uz, Initial residual = 0.0130343361359, Final residual = 0.0012295872516, No Iterations 16
GAMG:  Solving for p, Initial residual = 0.0134182620043, Final residual = 0.000346433599059, No Iterations 2
time step continuity errors : sum local = 1.2559330849e-07, global = -1.27608606408e-08, cumulative = -4.9348396895e-06
smoothSolver:  Solving for omega, Initial residual = 4.19406105385e-08, Final residual = 9.10904324315e-09, No Iterations 5
smoothSolver:  Solving for k, Initial residual = 0.000874099579795, Final residual = 8.57784855921e-05, No Iterations 10
ExecutionTime = 295.22 s  ClockTime = 296 s

Time = 75

smoothSolver:  Solving for Ux, Initial residual = 0.00513838665018, Final residual = 0.000512731493692, No Iterations 16
smoothSolver:  Solving for Uy, Initial residual = 0.0137666920302, Final residual = 0.00128258243746, No Iterations 16
smoothSolver:  Solving for Uz, Initial residual = 0.0124202893695, Final residual = 0.00116724346493, No Iterations 16
GAMG:  Solving for p, Initial residual = 0.0130348541662, Final residual = 0.000325397834236, No Iterations 2
time step continuity errors : sum local = 1.17674820156e-07, global = -7.96103807159e-09, cumulative = -4.94280072757e-06
smoothSolver:  Solving for omega, Initial residual = 4.15776973066e-08, Final residual = 9.25476166749e-09, No Iterations 5
smoothSolver:  Solving for k, Initial residual = 0.00093335954711, Final residual = 9.19747659649e-05, No Iterations 10
ExecutionTime = 299.24 s  ClockTime = 300 s

Time = 76

smoothSolver:  Solving for Ux, Initial residual = 0.00482437453876, Final residual = 0.00047473734434, No Iterations 16
smoothSolver:  Solving for Uy, Initial residual = 0.0133094617448, Final residual = 0.00122126327552, No Iterations 16
smoothSolver:  Solving for Uz, Initial residual = 0.012066650523, Final residual = 0.00111912038187, No Iterations 16
GAMG:  Solving for p, Initial residual = 0.0122890134575, Final residual = 0.000330227637057, No Iterations 2
time step continuity errors : sum local = 1.18731184512e-07, global = -3.21408796281e-09, cumulative = -4.94601481553e-06
smoothSolver:  Solving for omega, Initial residual = 4.15145816672e-08, Final residual = 9.3156918666e-09, No Iterations 5
smoothSolver:  Solving for k, Initial residual = 0.000987976492048, Final residual = 9.71697492819e-05, No Iterations 10
ExecutionTime = 303.13 s  ClockTime = 304 s

Time = 77

smoothSolver:  Solving for Ux, Initial residual = 0.00459692410329, Final residual = 0.000444351559275, No Iterations 16
smoothSolver:  Solving for Uy, Initial residual = 0.0126126310818, Final residual = 0.00113691481783, No Iterations 16
smoothSolver:  Solving for Uz, Initial residual = 0.0114497274395, Final residual = 0.00105071391525, No Iterations 16
GAMG:  Solving for p, Initial residual = 0.0118646901049, Final residual = 0.00032151267028, No Iterations 2
time step continuity errors : sum local = 1.15473001202e-07, global = 1.2232790054e-09, cumulative = -4.94479153653e-06
smoothSolver:  Solving for omega, Initial residual = 4.07722874153e-08, Final residual = 9.46720414379e-09, No Iterations 5
smoothSolver:  Solving for k, Initial residual = 0.00102961415803, Final residual = 0.000101334465396, No Iterations 10
ExecutionTime = 307.13 s  ClockTime = 308 s

Time = 78

smoothSolver:  Solving for Ux, Initial residual = 0.00440452792048, Final residual = 0.000418188551923, No Iterations 16
smoothSolver:  Solving for Uy, Initial residual = 0.0120461463581, Final residual = 0.00105265450359, No Iterations 16
smoothSolver:  Solving for Uz, Initial residual = 0.0109639186863, Final residual = 0.000979913137679, No Iterations 16
GAMG:  Solving for p, Initial residual = 0.0115516468446, Final residual = 0.000316533905491, No Iterations 2
time step continuity errors : sum local = 1.13023462516e-07, global = 5.37413615363e-09, cumulative = -4.93941740037e-06
smoothSolver:  Solving for omega, Initial residual = 4.26975897107e-08, Final residual = 9.35095748525e-09, No Iterations 5
smoothSolver:  Solving for k, Initial residual = 0.00105043386071, Final residual = 0.00010368791241, No Iterations 10
ExecutionTime = 311.21 s  ClockTime = 312 s

Time = 79

smoothSolver:  Solving for Ux, Initial residual = 0.00419896078756, Final residual = 0.000392650147708, No Iterations 16
smoothSolver:  Solving for Uy, Initial residual = 0.0115031038142, Final residual = 0.00113820919052, No Iterations 15
smoothSolver:  Solving for Uz, Initial residual = 0.010434290339, Final residual = 0.000913381009898, No Iterations 16
GAMG:  Solving for p, Initial residual = 0.0112982898984, Final residual = 0.000330404202162, No Iterations 2
time step continuity errors : sum local = 1.17643847468e-07, global = 8.71181974144e-09, cumulative = -4.93070558063e-06
smoothSolver:  Solving for omega, Initial residual = 4.09271724195e-08, Final residual = 9.07073259154e-09, No Iterations 5
smoothSolver:  Solving for k, Initial residual = 0.00103317460055, Final residual = 0.000103225488443, No Iterations 10
ExecutionTime = 315.33 s  ClockTime = 316 s

Time = 80

smoothSolver:  Solving for Ux, Initial residual = 0.00403683378847, Final residual = 0.000370865456117, No Iterations 16
smoothSolver:  Solving for Uy, Initial residual = 0.0106922113465, Final residual = 0.00104192375692, No Iterations 15
smoothSolver:  Solving for Uz, Initial residual = 0.0099326148663, Final residual = 0.000986512376259, No Iterations 15
GAMG:  Solving for p, Initial residual = 0.0111237227683, Final residual = 0.000305194401989, No Iterations 2
time step continuity errors : sum local = 1.08078709619e-07, global = 1.04041110565e-08, cumulative = -4.92030146957e-06
smoothSolver:  Solving for omega, Initial residual = 4.01572651502e-08, Final residual = 8.81679625727e-09, No Iterations 5
smoothSolver:  Solving for k, Initial residual = 0.000980891038686, Final residual = 8.10224261364e-05, No Iterations 11
ExecutionTime = 319.33 s  ClockTime = 320 s

Time = 81

smoothSolver:  Solving for Ux, Initial residual = 0.0038321327899, Final residual = 0.000347968069715, No Iterations 16
smoothSolver:  Solving for Uy, Initial residual = 0.0101790006437, Final residual = 0.00097463864786, No Iterations 15
smoothSolver:  Solving for Uz, Initial residual = 0.00937460166116, Final residual = 0.000903951809549, No Iterations 15
GAMG:  Solving for p, Initial residual = 0.010596687316, Final residual = 0.000305031918577, No Iterations 2
time step continuity errors : sum local = 1.07638588713e-07, global = 9.94501627195e-09, cumulative = -4.9103564533e-06
smoothSolver:  Solving for omega, Initial residual = 3.86589954171e-08, Final residual = 8.22347850509e-09, No Iterations 5
smoothSolver:  Solving for k, Initial residual = 0.000904188545547, Final residual = 7.53419548418e-05, No Iterations 11
ExecutionTime = 323.21 s  ClockTime = 324 s

Time = 82

smoothSolver:  Solving for Ux, Initial residual = 0.00366493290345, Final residual = 0.000325690065765, No Iterations 16
smoothSolver:  Solving for Uy, Initial residual = 0.00965180988943, Final residual = 0.000914809842007, No Iterations 15
smoothSolver:  Solving for Uz, Initial residual = 0.00876854900155, Final residual = 0.000834258568258, No Iterations 15
GAMG:  Solving for p, Initial residual = 0.0101783373715, Final residual = 0.000308963397919, No Iterations 2
time step continuity errors : sum local = 1.08350719231e-07, global = 8.45693525184e-09, cumulative = -4.90189951805e-06
smoothSolver:  Solving for omega, Initial residual = 3.77797194988e-08, Final residual = 9.8452162741e-09, No Iterations 4
smoothSolver:  Solving for k, Initial residual = 0.000827039243162, Final residual = 6.90784974123e-05, No Iterations 11
ExecutionTime = 327.12 s  ClockTime = 328 s

Time = 83

smoothSolver:  Solving for Ux, Initial residual = 0.00349424449567, Final residual = 0.000307039173762, No Iterations 16
smoothSolver:  Solving for Uy, Initial residual = 0.00924489912848, Final residual = 0.000860249880978, No Iterations 15
smoothSolver:  Solving for Uz, Initial residual = 0.00838883960214, Final residual = 0.000783824862639, No Iterations 15
GAMG:  Solving for p, Initial residual = 0.00987400707157, Final residual = 0.000262193471449, No Iterations 2
time step continuity errors : sum local = 9.16571821905e-08, global = 6.72870207602e-09, cumulative = -4.89517081597e-06
smoothSolver:  Solving for omega, Initial residual = 3.98249642626e-08, Final residual = 9.87412357182e-09, No Iterations 4
smoothSolver:  Solving for k, Initial residual = 0.000765399649996, Final residual = 6.33789500862e-05, No Iterations 11
ExecutionTime = 331.05 s  ClockTime = 332 s

Time = 84

smoothSolver:  Solving for Ux, Initial residual = 0.00333073786393, Final residual = 0.000288500899848, No Iterations 16
smoothSolver:  Solving for Uy, Initial residual = 0.008907379852, Final residual = 0.00080997212102, No Iterations 15
smoothSolver:  Solving for Uz, Initial residual = 0.00809715275298, Final residual = 0.000742605780161, No Iterations 15
GAMG:  Solving for p, Initial residual = 0.00961161787889, Final residual = 0.000312432434939, No Iterations 2
time step continuity errors : sum local = 1.08492879275e-07, global = 5.11552340749e-09, cumulative = -4.89005529257e-06
smoothSolver:  Solving for omega, Initial residual = 3.91025309354e-08, Final residual = 9.3642838265e-09, No Iterations 4
smoothSolver:  Solving for k, Initial residual = 0.000707705634124, Final residual = 5.81093469541e-05, No Iterations 11
ExecutionTime = 334.96 s  ClockTime = 336 s

Time = 85

smoothSolver:  Solving for Ux, Initial residual = 0.00319614249518, Final residual = 0.000315210125626, No Iterations 15
smoothSolver:  Solving for Uy, Initial residual = 0.00840797357922, Final residual = 0.00075539711423, No Iterations 15
smoothSolver:  Solving for Uz, Initial residual = 0.00752070411282, Final residual = 0.000687505827875, No Iterations 15
GAMG:  Solving for p, Initial residual = 0.00957611596312, Final residual = 0.00028339106618, No Iterations 2
time step continuity errors : sum local = 9.8457292925e-08, global = 3.29964589377e-09, cumulative = -4.88675564667e-06
smoothSolver:  Solving for omega, Initial residual = 3.86762497e-08, Final residual = 9.32419633818e-09, No Iterations 4
smoothSolver:  Solving for k, Initial residual = 0.000638638006954, Final residual = 5.3211822502e-05, No Iterations 11
ExecutionTime = 338.93 s  ClockTime = 340 s

Time = 86

smoothSolver:  Solving for Ux, Initial residual = 0.0029751365576, Final residual = 0.000288697211771, No Iterations 15
smoothSolver:  Solving for Uy, Initial residual = 0.00815032763374, Final residual = 0.000711675328388, No Iterations 15
smoothSolver:  Solving for Uz, Initial residual = 0.00752138131819, Final residual = 0.000653263512795, No Iterations 15
GAMG:  Solving for p, Initial residual = 0.00906655187366, Final residual = 0.000260245875467, No Iterations 2
time step continuity errors : sum local = 8.98347394507e-08, global = 8.76212030527e-10, cumulative = -4.88587943464e-06
smoothSolver:  Solving for omega, Initial residual = 3.93727068292e-08, Final residual = 8.69284315502e-09, No Iterations 4
smoothSolver:  Solving for k, Initial residual = 0.000580521233185, Final residual = 4.87558701376e-05, No Iterations 11
ExecutionTime = 342.79 s  ClockTime = 344 s

Time = 87

smoothSolver:  Solving for Ux, Initial residual = 0.0028327667024, Final residual = 0.000268055776418, No Iterations 15
smoothSolver:  Solving for Uy, Initial residual = 0.00776610867153, Final residual = 0.00077648543394, No Iterations 14
smoothSolver:  Solving for Uz, Initial residual = 0.00712617053855, Final residual = 0.000707418262869, No Iterations 14
GAMG:  Solving for p, Initial residual = 0.00886622879873, Final residual = 0.000313367690186, No Iterations 2
time step continuity errors : sum local = 1.07924635619e-07, global = -1.99758303585e-09, cumulative = -4.88787701768e-06
smoothSolver:  Solving for omega, Initial residual = 3.83968870569e-08, Final residual = 8.21819850662e-09, No Iterations 4
smoothSolver:  Solving for k, Initial residual = 0.000538661311812, Final residual = 4.49548953647e-05, No Iterations 11
ExecutionTime = 346.65 s  ClockTime = 348 s

Time = 88

smoothSolver:  Solving for Ux, Initial residual = 0.00275786791718, Final residual = 0.000255377454407, No Iterations 15
smoothSolver:  Solving for Uy, Initial residual = 0.00732615116523, Final residual = 0.000720737330006, No Iterations 14
smoothSolver:  Solving for Uz, Initial residual = 0.00667504880549, Final residual = 0.000656556364967, No Iterations 14
GAMG:  Solving for p, Initial residual = 0.00862925207093, Final residual = 0.000231219482006, No Iterations 2
time step continuity errors : sum local = 7.94305590087e-08, global = -4.03751492241e-09, cumulative = -4.8919145326e-06
smoothSolver:  Solving for omega, Initial residual = 3.94411046681e-08, Final residual = 8.26834209481e-09, No Iterations 4
smoothSolver:  Solving for k, Initial residual = 0.000510307947208, Final residual = 4.26010888275e-05, No Iterations 11
ExecutionTime = 350.56 s  ClockTime = 351 s

Time = 89

smoothSolver:  Solving for Ux, Initial residual = 0.00263158106582, Final residual = 0.000241304030771, No Iterations 15
smoothSolver:  Solving for Uy, Initial residual = 0.00713747300013, Final residual = 0.000680490933761, No Iterations 14
smoothSolver:  Solving for Uz, Initial residual = 0.00661541886832, Final residual = 0.000628597407602, No Iterations 14
GAMG:  Solving for p, Initial residual = 0.00850567258983, Final residual = 0.000304281459307, No Iterations 2
time step continuity errors : sum local = 1.03990197512e-07, global = -4.7653986577e-09, cumulative = -4.89667993126e-06
[...]
smoothSolver:  Solving for Uy, Initial residual = 0.00250674386427, Final residual = 0.000217285563978, No Iterations 9
smoothSolver:  Solving for Uz, Initial residual = 0.0023344934242, Final residual = 0.000204891280609, No Iterations 9
GAMG:  Solving for p, Initial residual = 0.00364152458987, Final residual = 0.000188631673364, No Iterations 2
time step continuity errors : sum local = 6.28659873974e-08, global = -1.0330971746e-09, cumulative = -4.86108082985e-06
smoothSolver:  Solving for omega, Initial residual = 3.60368995377e-08, Final residual = 9.78834868758e-09, No Iterations 2
smoothSolver:  Solving for k, Initial residual = 0.000155669484283, Final residual = 1.38282726851e-05, No Iterations 8
ExecutionTime = 2581.74 s  ClockTime = 2588 s

Time = 715

smoothSolver:  Solving for Ux, Initial residual = 0.000848901125047, Final residual = 8.16562375066e-05, No Iterations 9
smoothSolver:  Solving for Uy, Initial residual = 0.00267080995822, Final residual = 0.000265343600928, No Iterations 8
smoothSolver:  Solving for Uz, Initial residual = 0.00260847796268, Final residual = 0.000229192003738, No Iterations 9
GAMG:  Solving for p, Initial residual = 0.00359346395014, Final residual = 0.000244750156555, No Iterations 2
time step continuity errors : sum local = 8.13039268592e-08, global = -5.62353781296e-10, cumulative = -4.86164318363e-06
smoothSolver:  Solving for omega, Initial residual = 3.55181028743e-08, Final residual = 6.49896047936e-09, No Iterations 3
smoothSolver:  Solving for k, Initial residual = 0.000167620977008, Final residual = 1.41066365264e-05, No Iterations 8
ExecutionTime = 2585.25 s  ClockTime = 2591 s

Time = 716

smoothSolver:  Solving for Ux, Initial residual = 0.000865813845228, Final residual = 8.56719584183e-05, No Iterations 9
smoothSolver:  Solving for Uy, Initial residual = 0.00253330544387, Final residual = 0.000220936533886, No Iterations 9
smoothSolver:  Solving for Uz, Initial residual = 0.00228486935586, Final residual = 0.000201883357352, No Iterations 9
GAMG:  Solving for p, Initial residual = 0.00366163709005, Final residual = 0.000235764959916, No Iterations 2
time step continuity errors : sum local = 7.86676249217e-08, global = 6.19613356023e-10, cumulative = -4.86102357028e-06
smoothSolver:  Solving for omega, Initial residual = 3.41016055162e-08, Final residual = 9.85754566655e-09, No Iterations 2
smoothSolver:  Solving for k, Initial residual = 0.000167739478289, Final residual = 1.3939490883e-05, No Iterations 8
ExecutionTime = 2588.72 s  ClockTime = 2595 s

Time = 717

smoothSolver:  Solving for Ux, Initial residual = 0.000831197362457, Final residual = 7.20192217766e-05, No Iterations 10
smoothSolver:  Solving for Uy, Initial residual = 0.00252108666267, Final residual = 0.000214410884128, No Iterations 9
smoothSolver:  Solving for Uz, Initial residual = 0.0024164241371, Final residual = 0.000208958853767, No Iterations 9
GAMG:  Solving for p, Initial residual = 0.00374266445424, Final residual = 0.000155682262488, No Iterations 2
time step continuity errors : sum local = 5.19318755471e-08, global = 1.27832229888e-09, cumulative = -4.85974524798e-06
smoothSolver:  Solving for omega, Initial residual = 3.78679361842e-08, Final residual = 7.38876465713e-09, No Iterations 3
smoothSolver:  Solving for k, Initial residual = 0.000160277480026, Final residual = 1.41850440242e-05, No Iterations 8
ExecutionTime = 2592.35 s  ClockTime = 2598 s

Time = 718

smoothSolver:  Solving for Ux, Initial residual = 0.000875710388197, Final residual = 8.39090928504e-05, No Iterations 9
smoothSolver:  Solving for Uy, Initial residual = 0.00276343776568, Final residual = 0.00027179366624, No Iterations 8
smoothSolver:  Solving for Uz, Initial residual = 0.00261674837731, Final residual = 0.000224746380388, No Iterations 9
GAMG:  Solving for p, Initial residual = 0.00349580546297, Final residual = 0.00026723876846, No Iterations 2
time step continuity errors : sum local = 8.88967005205e-08, global = 5.38278334803e-10, cumulative = -4.85920696964e-06
smoothSolver:  Solving for omega, Initial residual = 3.4074699276e-08, Final residual = 9.51500108887e-09, No Iterations 2
smoothSolver:  Solving for k, Initial residual = 0.000172373537514, Final residual = 1.40781279566e-05, No Iterations 8
ExecutionTime = 2595.84 s  ClockTime = 2602 s

Time = 719

smoothSolver:  Solving for Ux, Initial residual = 0.000868889686577, Final residual = 7.27068533605e-05, No Iterations 10
smoothSolver:  Solving for Uy, Initial residual = 0.00245158759762, Final residual = 0.000215674331094, No Iterations 9
smoothSolver:  Solving for Uz, Initial residual = 0.00218624423298, Final residual = 0.000191007179552, No Iterations 9
GAMG:  Solving for p, Initial residual = 0.00373444567602, Final residual = 0.000203319200503, No Iterations 2
time step continuity errors : sum local = 6.78151309527e-08, global = -8.29578285547e-10, cumulative = -4.86003654793e-06
smoothSolver:  Solving for omega, Initial residual = 3.60389649915e-08, Final residual = 6.8208462482e-09, No Iterations 3
smoothSolver:  Solving for k, Initial residual = 0.000160136895182, Final residual = 1.38365473744e-05, No Iterations 8
ExecutionTime = 2599.32 s  ClockTime = 2605 s

Time = 720

smoothSolver:  Solving for Ux, Initial residual = 0.000840997547386, Final residual = 7.27802425073e-05, No Iterations 10
smoothSolver:  Solving for Uy, Initial residual = 0.00271747027446, Final residual = 0.00022851946139, No Iterations 9
smoothSolver:  Solving for Uz, Initial residual = 0.00266271152166, Final residual = 0.000227607213317, No Iterations 9
GAMG:  Solving for p, Initial residual = 0.00366893354132, Final residual = 0.000224055780761, No Iterations 2
time step continuity errors : sum local = 7.4372306918e-08, global = -1.03283827072e-09, cumulative = -4.8610693862e-06
smoothSolver:  Solving for omega, Initial residual = 3.60147375418e-08, Final residual = 6.57624491041e-09, No Iterations 3
smoothSolver:  Solving for k, Initial residual = 0.000161226459712, Final residual = 1.4145216578e-05, No Iterations 8
ExecutionTime = 2602.99 s  ClockTime = 2609 s

Time = 721

smoothSolver:  Solving for Ux, Initial residual = 0.000860090758899, Final residual = 8.08954061609e-05, No Iterations 9
smoothSolver:  Solving for Uy, Initial residual = 0.00270731412911, Final residual = 0.000228875443102, No Iterations 9
smoothSolver:  Solving for Uz, Initial residual = 0.00250874869631, Final residual = 0.000225938325426, No Iterations 9
GAMG:  Solving for p, Initial residual = 0.00375861143536, Final residual = 0.000271150132291, No Iterations 2
time step continuity errors : sum local = 9.030421873e-08, global = 6.21485978287e-11, cumulative = -4.8610072376e-06
smoothSolver:  Solving for omega, Initial residual = 3.33976702861e-08, Final residual = 9.35666208722e-09, No Iterations 2
smoothSolver:  Solving for k, Initial residual = 0.000171731001719, Final residual = 1.37905642969e-05, No Iterations 8
ExecutionTime = 2606.82 s  ClockTime = 2613 s

Time = 722

smoothSolver:  Solving for Ux, Initial residual = 0.000856786362472, Final residual = 7.41873582995e-05, No Iterations 10
smoothSolver:  Solving for Uy, Initial residual = 0.00249634989741, Final residual = 0.000211060814387, No Iterations 9
smoothSolver:  Solving for Uz, Initial residual = 0.00222815759628, Final residual = 0.000188034752794, No Iterations 9
GAMG:  Solving for p, Initial residual = 0.00375965118226, Final residual = 0.000170990025061, No Iterations 2
time step continuity errors : sum local = 5.6991340118e-08, global = 1.15435631535e-09, cumulative = -4.85985288129e-06
smoothSolver:  Solving for omega, Initial residual = 3.68659675536e-08, Final residual = 7.44549346701e-09, No Iterations 3
smoothSolver:  Solving for k, Initial residual = 0.000157513447191, Final residual = 1.34628136267e-05, No Iterations 8
ExecutionTime = 2610.35 s  ClockTime = 2616 s

Time = 723

smoothSolver:  Solving for Ux, Initial residual = 0.000846071669021, Final residual = 7.18623715639e-05, No Iterations 10
smoothSolver:  Solving for Uy, Initial residual = 0.00279612488007, Final residual = 0.000235695154339, No Iterations 9
smoothSolver:  Solving for Uz, Initial residual = 0.00276129682991, Final residual = 0.000238286893925, No Iterations 9
GAMG:  Solving for p, Initial residual = 0.00353081455004, Final residual = 0.000227791712087, No Iterations 2
time step continuity errors : sum local = 7.57440489545e-08, global = 9.50436731541e-10, cumulative = -4.85890244456e-06
smoothSolver:  Solving for omega, Initial residual = 3.62208167961e-08, Final residual = 6.44704997135e-09, No Iterations 3
smoothSolver:  Solving for k, Initial residual = 0.000167144819019, Final residual = 1.38434043246e-05, No Iterations 8
ExecutionTime = 2613.96 s  ClockTime = 2620 s

Time = 724

smoothSolver:  Solving for Ux, Initial residual = 0.00087252514825, Final residual = 8.54201548909e-05, No Iterations 9
smoothSolver:  Solving for Uy, Initial residual = 0.0026144717742, Final residual = 0.000220270366501, No Iterations 9
smoothSolver:  Solving for Uz, Initial residual = 0.00239634345005, Final residual = 0.00023589580197, No Iterations 8
GAMG:  Solving for p, Initial residual = 0.00356453537391, Final residual = 0.000248733649538, No Iterations 2
time step continuity errors : sum local = 8.28084118457e-08, global = -3.30857737179e-10, cumulative = -4.85923330229e-06
smoothSolver:  Solving for omega, Initial residual = 3.45700578574e-08, Final residual = 9.67816533888e-09, No Iterations 2
smoothSolver:  Solving for k, Initial residual = 0.000169580210198, Final residual = 1.38124333808e-05, No Iterations 8
ExecutionTime = 2617.46 s  ClockTime = 2624 s

Time = 725

smoothSolver:  Solving for Ux, Initial residual = 0.000848976707003, Final residual = 7.32548523184e-05, No Iterations 10
smoothSolver:  Solving for Uy, Initial residual = 0.00258726637085, Final residual = 0.000222824420025, No Iterations 9
smoothSolver:  Solving for Uz, Initial residual = 0.00243987099326, Final residual = 0.000213047352473, No Iterations 9
GAMG:  Solving for p, Initial residual = 0.00371025449062, Final residual = 0.00019419650955, No Iterations 2
time step continuity errors : sum local = 6.46239898458e-08, global = -1.21612246338e-09, cumulative = -4.86044942476e-06
smoothSolver:  Solving for omega, Initial residual = 3.82233217807e-08, Final residual = 6.9962170673e-09, No Iterations 3
smoothSolver:  Solving for k, Initial residual = 0.00015942845406, Final residual = 1.41211197275e-05, No Iterations 8
ExecutionTime = 2620.96 s  ClockTime = 2627 s

Time = 726

smoothSolver:  Solving for Ux, Initial residual = 0.000862358458794, Final residual = 8.20574948618e-05, No Iterations 9
smoothSolver:  Solving for Uy, Initial residual = 0.00269950799281, Final residual = 0.000269345259575, No Iterations 8
smoothSolver:  Solving for Uz, Initial residual = 0.00262272935923, Final residual = 0.000235092857794, No Iterations 9
GAMG:  Solving for p, Initial residual = 0.00356929752596, Final residual = 0.000252502721121, No Iterations 2
time step continuity errors : sum local = 8.38662701276e-08, global = -5.56084625017e-10, cumulative = -4.86100550938e-06
smoothSolver:  Solving for omega, Initial residual = 3.40649907054e-08, Final residual = 9.57670124959e-09, No Iterations 2
smoothSolver:  Solving for k, Initial residual = 0.000173741824423, Final residual = 1.45212690327e-05, No Iterations 8
ExecutionTime = 2624.5 s  ClockTime = 2631 s

Time = 727

smoothSolver:  Solving for Ux, Initial residual = 0.000865503113538, Final residual = 7.37763914934e-05, No Iterations 10
smoothSolver:  Solving for Uy, Initial residual = 0.00252794207413, Final residual = 0.000222734698353, No Iterations 9
smoothSolver:  Solving for Uz, Initial residual = 0.00222120048032, Final residual = 0.000199394775694, No Iterations 9
GAMG:  Solving for p, Initial residual = 0.00368479891423, Final residual = 0.000224561247068, No Iterations 2
time step continuity errors : sum local = 7.49413972843e-08, global = 6.78867315513e-10, cumulative = -4.86032664207e-06
smoothSolver:  Solving for omega, Initial residual = 3.59850474187e-08, Final residual = 6.93671054893e-09, No Iterations 3
smoothSolver:  Solving for k, Initial residual = 0.000169673996557, Final residual = 1.44129802999e-05, No Iterations 8
ExecutionTime = 2628 s  ClockTime = 2634 s

Time = 728

smoothSolver:  Solving for Ux, Initial residual = 0.000828955195615, Final residual = 7.04913643151e-05, No Iterations 10
smoothSolver:  Solving for Uy, Initial residual = 0.00258745353924, Final residual = 0.00021973857351, No Iterations 9
smoothSolver:  Solving for Uz, Initial residual = 0.00248809027282, Final residual = 0.000215322689077, No Iterations 9
GAMG:  Solving for p, Initial residual = 0.00372907693989, Final residual = 0.000165373526517, No Iterations 2
time step continuity errors : sum local = 5.52292724056e-08, global = 1.19082434345e-09, cumulative = -4.85913581772e-06
smoothSolver:  Solving for omega, Initial residual = 3.63980227458e-08, Final residual = 6.90784805203e-09, No Iterations 3
smoothSolver:  Solving for k, Initial residual = 0.000162137659445, Final residual = 1.45203857378e-05, No Iterations 8
ExecutionTime = 2631.52 s  ClockTime = 2638 s

Time = 729

smoothSolver:  Solving for Ux, Initial residual = 0.000878884845321, Final residual = 8.37147414184e-05, No Iterations 9
smoothSolver:  Solving for Uy, Initial residual = 0.00275776763216, Final residual = 0.000270943411606, No Iterations 8
smoothSolver:  Solving for Uz, Initial residual = 0.00257116022892, Final residual = 0.000220592893585, No Iterations 9
GAMG:  Solving for p, Initial residual = 0.00348737213154, Final residual = 0.000270277475164, No Iterations 2
time step continuity errors : sum local = 9.00009997774e-08, global = 3.46598155977e-10, cumulative = -4.85878921957e-06
smoothSolver:  Solving for omega, Initial residual = 3.41498533762e-08, Final residual = 9.50713535771e-09, No Iterations 2
smoothSolver:  Solving for k, Initial residual = 0.000175322630608, Final residual = 1.43750206003e-05, No Iterations 8
ExecutionTime = 2635.6 s  ClockTime = 2642 s

Time = 730

smoothSolver:  Solving for Ux, Initial residual = 0.000877027562081, Final residual = 7.39424319329e-05, No Iterations 10
smoothSolver:  Solving for Uy, Initial residual = 0.00248238161115, Final residual = 0.000218985252351, No Iterations 9
smoothSolver:  Solving for Uz, Initial residual = 0.00222361923723, Final residual = 0.000196404437713, No Iterations 9
GAMG:  Solving for p, Initial residual = 0.00372980646924, Final residual = 0.000194674076504, No Iterations 2
time step continuity errors : sum local = 6.49209629273e-08, global = -9.49458711936e-10, cumulative = -4.85973867828e-06
smoothSolver:  Solving for omega, Initial residual = 3.703375919e-08, Final residual = 7.00240002338e-09, No Iterations 3
smoothSolver:  Solving for k, Initial residual = 0.00016122471502, Final residual = 1.41346463407e-05, No Iterations 8
ExecutionTime = 2639.18 s  ClockTime = 2645 s

Time = 731

smoothSolver:  Solving for Ux, Initial residual = 0.000846157095777, Final residual = 7.32014390413e-05, No Iterations 10
smoothSolver:  Solving for Uy, Initial residual = 0.00272865809695, Final residual = 0.000230169800626, No Iterations 9
smoothSolver:  Solving for Uz, Initial residual = 0.00266489889323, Final residual = 0.000230991100281, No Iterations 9
GAMG:  Solving for p, Initial residual = 0.00367126275878, Final residual = 0.000231116176204, No Iterations 2
time step continuity errors : sum local = 7.66963107438e-08, global = -9.60726694939e-10, cumulative = -4.86069940497e-06
smoothSolver:  Solving for omega, Initial residual = 3.60125645132e-08, Final residual = 6.59125456999e-09, No Iterations 3
smoothSolver:  Solving for k, Initial residual = 0.000164437803494, Final residual = 1.43922092383e-05, No Iterations 8
ExecutionTime = 2642.97 s  ClockTime = 2649 s

Time = 732

smoothSolver:  Solving for Ux, Initial residual = 0.000872378194937, Final residual = 8.2411804604e-05, No Iterations 9
smoothSolver:  Solving for Uy, Initial residual = 0.00267488456851, Final residual = 0.000227430676092, No Iterations 9
smoothSolver:  Solving for Uz, Initial residual = 0.00245756411047, Final residual = 0.000221869860053, No Iterations 9
GAMG:  Solving for p, Initial residual = 0.0037510025905, Final residual = 0.00026565802726, No Iterations 2
time step continuity errors : sum local = 8.85253028369e-08, global = 2.13408971228e-10, cumulative = -4.860485996e-06
smoothSolver:  Solving for omega, Initial residual = 3.34144566096e-08, Final residual = 9.48699165068e-09, No Iterations 2
smoothSolver:  Solving for k, Initial residual = 0.000173272833256, Final residual = 1.39923579124e-05, No Iterations 8
ExecutionTime = 2646.84 s  ClockTime = 2653 s

Time = 733

smoothSolver:  Solving for Ux, Initial residual = 0.000845051547392, Final residual = 7.4074258769e-05, No Iterations 10
smoothSolver:  Solving for Uy, Initial residual = 0.00248018407173, Final residual = 0.00021085578288, No Iterations 9
smoothSolver:  Solving for Uz, Initial residual = 0.00227662950752, Final residual = 0.000192580662984, No Iterations 9
GAMG:  Solving for p, Initial residual = 0.00374776610191, Final residual = 0.000159489271096, No Iterations 2
time step continuity errors : sum local = 5.31509201823e-08, global = 1.24269556855e-09, cumulative = -4.85924330043e-06
smoothSolver:  Solving for omega, Initial residual = 3.68456845654e-08, Final residual = 7.4458370912e-09, No Iterations 3
smoothSolver:  Solving for k, Initial residual = 0.000158218737692, Final residual = 1.37202663631e-05, No Iterations 8
ExecutionTime = 2650.53 s  ClockTime = 2657 s

Time = 734

smoothSolver:  Solving for Ux, Initial residual = 0.00085190960534, Final residual = 7.18091885433e-05, No Iterations 10
smoothSolver:  Solving for Uy, Initial residual = 0.00280531748554, Final residual = 0.000237079680616, No Iterations 9
smoothSolver:  Solving for Uz, Initial residual = 0.00275121506004, Final residual = 0.000238662100506, No Iterations 9
GAMG:  Solving for p, Initial residual = 0.00352975831873, Final residual = 0.000242873387375, No Iterations 2
time step continuity errors : sum local = 8.07402789204e-08, global = 9.08811777088e-10, cumulative = -4.85833448866e-06
smoothSolver:  Solving for omega, Initial residual = 3.54537217249e-08, Final residual = 9.77829590173e-09, No Iterations 2
smoothSolver:  Solving for k, Initial residual = 0.000170437678817, Final residual = 1.40838577028e-05, No Iterations 8
ExecutionTime = 2654.16 s  ClockTime = 2661 s

Time = 735

smoothSolver:  Solving for Ux, Initial residual = 0.000876093337308, Final residual = 8.57512616341e-05, No Iterations 9
smoothSolver:  Solving for Uy, Initial residual = 0.0025699442885, Final residual = 0.000219082249522, No Iterations 9
smoothSolver:  Solving for Uz, Initial residual = 0.00235030417243, Final residual = 0.000231672821908, No Iterations 8
GAMG:  Solving for p, Initial residual = 0.00362382680797, Final residual = 0.000238853609624, No Iterations 2
time step continuity errors : sum local = 7.95503984956e-08, global = -4.14112701799e-10, cumulative = -4.85874860136e-06
smoothSolver:  Solving for omega, Initial residual = 3.59860357996e-08, Final residual = 6.61583507581e-09, No Iterations 3
smoothSolver:  Solving for k, Initial residual = 0.000168114954967, Final residual = 1.39319933435e-05, No Iterations 8
ExecutionTime = 2657.74 s  ClockTime = 2664 s

Time = 736

smoothSolver:  Solving for Ux, Initial residual = 0.000839651823837, Final residual = 7.39342015065e-05, No Iterations 10
smoothSolver:  Solving for Uy, Initial residual = 0.00262534836988, Final residual = 0.000225623342352, No Iterations 9
smoothSolver:  Solving for Uz, Initial residual = 0.00251864338021, Final residual = 0.000219181418052, No Iterations 9
