/*---------------------------------------------------------------------------*\
  =========                 |
  \\      /  F ield         | OpenFOAM: The Open Source CFD Toolbox
   \\    /   O peration     | Website:  https://openfoam.org
    \\  /    A nd           | Version:  6
     \\/     M anipulation  |
\*---------------------------------------------------------------------------*/
Build  : 6-6257b17a4cf8
Exec   : simpleFoam
Date   : Jun 22 2019
Time   : 17:37:19
Host   : "DELLXPS13-9360"
PID    : 610
I/O    : uncollated
Case   : /mnt/c/GitHub/saturnWheel/01-Sim/config1a
nProcs : 1
sigFpe : Enabling floating point exception trapping (FOAM_SIGFPE).
fileModificationChecking : Monitoring run-time modified files using timeStampMaster (fileModificationSkew 10)
allowSystemOperations : Allowing user-supplied system call operations

// * * * * * * * * * * * * * * * * * * * * * * * * * * * * * * * * * * * * * //
Create time

Create mesh for time = 196


SIMPLE: Convergence criteria found
        p: tolerance 0.01
        U: tolerance 0.001
        "(k|epsilon|omega)": tolerance 0.001

Reading field p

Reading field U

Reading/calculating face flux field phi

Selecting incompressible transport model Newtonian
Selecting turbulence model type RAS
Selecting RAS turbulence model kOmegaSST
Selecting patchDistMethod meshWave
RAS
{
    RASModel        kOmegaSST;
    turbulence      on;
    printCoeffs     on;
    alphaK1         0.85;
    alphaK2         1;
    alphaOmega1     0.5;
    alphaOmega2     0.856;
    gamma1          0.555555555556;
    gamma2          0.44;
    beta1           0.075;
    beta2           0.0828;
    betaStar        0.09;
    a1              0.31;
    b1              1;
    c1              10;
    F3              false;
}

No MRF models present

No finite volume options present

Starting time loop

Time = 197

smoothSolver:  Solving for Ux, Initial residual = 0.000256879304092, Final residual = 2.24286289691e-05, No Iterations 11
smoothSolver:  Solving for Uy, Initial residual = 0.000934686835029, Final residual = 8.52393739609e-05, No Iterations 10
smoothSolver:  Solving for Uz, Initial residual = 0.000841507776335, Final residual = 8.26682528801e-05, No Iterations 10
GAMG:  Solving for p, Initial residual = 0.00185089890057, Final residual = 5.75170939307e-05, No Iterations 2
time step continuity errors : sum local = 1.93898616111e-08, global = 2.43461447852e-11, cumulative = 2.43461447852e-11
smoothSolver:  Solving for omega, Initial residual = 1.36608394715e-08, Final residual = 8.30156107612e-09, No Iterations 1
smoothSolver:  Solving for k, Initial residual = 0.000141195851335, Final residual = 1.28369885538e-05, No Iterations 10
ExecutionTime = 3.69 s  ClockTime = 4 s


SIMPLE solution converged in 197 iterations

End

